geometry optimzed in LAMMPS
_audit_creation_date              2020-11-30 
_audit_creation_method            'lammps2cif' 
_symmetry_space_group_name_H-M    'P1' 
_symmetry_Int_Tables_number       1 
_symmetry_cell_setting            triclinic 
loop_ 
_symmetry_equiv_pos_as_xyz 
  x,y,z 
_cell_length_a                    31.156272341722556 
_cell_length_b                    25.780311265196396 
_cell_length_c                    24.187759759591362 
_cell_angle_alpha                 96.00731249614458 
_cell_angle_beta                  91.52672436167477 
_cell_angle_gamma                 96.79994521807313 
loop_ 
_atom_site_label 
_atom_site_type_symbol 
_atom_site_fract_x 
_atom_site_fract_y 
_atom_site_fract_z 
_atom_site_charge 
C1          C  0.20571928  0.25165518  0.38458667     0.03620
C2          C  0.18293503  0.25859656  0.43515773    -0.12530
C3          C  0.13669169  0.25512285  0.43712005     0.01120
C4          C  0.11297241  0.24853936  0.38544056    -0.11050
C5          C  0.13345042  0.24405412  0.33359110     0.03620
C6          C  0.17943835  0.24509166  0.33414318    -0.10470
H7          H  0.20103742  0.26586078  0.47424217     0.09210
H8          H  0.07797395  0.24420802  0.38557096     0.06740
H9          H  0.19403560  0.23877184  0.29442421     0.06590
C10         C  0.25584513  0.24815654  0.38512849     0.03620
C11         C  0.27940206  0.24116028  0.43521721    -0.12530
C12         C  0.32429108  0.23478849  0.43668614     0.01120
C13         C  0.34634100  0.23458835  0.38659862    -0.11050
C14         C  0.32511818  0.23868798  0.33511037     0.03620
C15         C  0.28031717  0.24694757  0.33534151    -0.10470
H16         H  0.26283038  0.23754468  0.47344888     0.09210
H17         H  0.37942857  0.22549347  0.38669462     0.06740
H18         H  0.26429297  0.24827756  0.29551997     0.06590
C19         C  0.00520752  0.23951951  0.13399109     0.03620
C20         C  0.02913565  0.24304190  0.08349821    -0.12530
C21         C  0.07570830  0.25428225  0.08376974     0.01120
C22         C  0.09825001  0.26237673  0.13573607    -0.11050
C23         C  0.07721367  0.25913835  0.18615809     0.03620
C24         C  0.03126000  0.24747384  0.18478472    -0.10470
H25         H  0.01205930  0.24040567  0.04373918     0.09210
H26         H  0.13298526  0.27328278  0.13709071     0.06740
H27         H  0.01646634  0.24629429  0.22445643     0.06590
C28         C  0.45400338  0.23207320  0.13481793     0.03620
C29         C  0.42739430  0.23138427  0.08542156    -0.12530
C30         C  0.38196327  0.23566689  0.08665369     0.01120
C31         C  0.36189680  0.23588497  0.13818091    -0.11050
C32         C  0.38478102  0.23130630  0.18811967     0.03620
C33         C  0.43075374  0.22983811  0.18559707    -0.10470
H34         H  0.44206300  0.23197782  0.04557051     0.09210
H35         H  0.32835764  0.24309004  0.13989646     0.06740
H36         H  0.44808114  0.22867859  0.22443261     0.06590
C37         C  0.08402767  0.09466773  0.51072024     0.03620
C38         C  0.07736046  0.14660195  0.50102967    -0.12530
C39         C  0.11409370  0.18503157  0.49980296     0.01120
C40         C  0.15491155  0.17187284  0.01367466    -0.11050
C41         C  0.16072692  0.12088006  0.02226339     0.03620
C42         C  0.12611536  0.08183495  0.01311881    -0.10470
H43         H  0.04497548  0.15691499  0.49545551     0.09210
H44         H  0.18163644  0.20240692  0.02368688     0.06740
H45         H  0.13117443  0.04157969  0.01778178     0.06590
C46         C  0.11304255  0.24099003  0.49017898     0.01060
C47         C  0.10067373  0.27497586  0.03415912     0.01060
C48         C  0.15133289  0.42077608  0.02546408     0.03620
C49         C  0.11799120  0.44419504  0.55181588    -0.12530
C50         C  0.08060934  0.41366466  0.56210429     0.01120
C51         C  0.08558193  0.36373269  0.57499679    -0.11050
C52         C  0.11252965  0.33449802  0.04108135     0.03620
C53         C  0.14749818  0.36465861  0.01661492    -0.10470
H54         H  0.11663812  0.48536026  0.55176145     0.09210
H55         H  0.05827849  0.34485455  0.59490078     0.06740
H56         H  0.17136257  0.34637313  0.99290894     0.06590
C57         C  0.34682053  0.21880187  0.48814060     0.01060
C58         C  0.35713786  0.25239899  0.03680063     0.01060
C59         C  0.38899147  0.09096020  0.51772790     0.03620
C60         C  0.38218925  0.13127096  0.48281933    -0.12530
C61         C  0.34669606  0.16133942  0.49329179     0.01120
C62         C  0.31583425  0.14325062  0.02901397    -0.11050
C63         C  0.32747333  0.11241458  0.06913104     0.03620
C64         C  0.36674274  0.09299797  0.06755704    -0.10470
H65         H  0.40433390  0.14031705  0.45051223     0.09210
H66         H  0.28646429  0.16195203  0.03348452     0.06740
H67         H  0.37731531  0.07569863  0.10338627     0.06590
C68         C  0.32971937  0.39549197  0.03264413     0.03620
C69         C  0.32121261  0.33998965  0.03526713    -0.12530
C70         C  0.35722668  0.31058688  0.03846994     0.01120
C71         C  0.39836605  0.33758267  0.54099225    -0.11050
C72         C  0.40493016  0.38736360  0.52474952     0.03620
C73         C  0.37202077  0.41775455  0.52586050    -0.10630
H74         H  0.28836233  0.32092092  0.03525467     0.09210
H75         H  0.42627170  0.31659877  0.54285922     0.06740
H76         H  0.37888361  0.45787606  0.51645220     0.06590
O77         O  0.24396020  0.04256994  0.21324487    -0.73930
O78         O  0.19661512  0.06534722  0.07316204    -0.73960
O79         O  0.27559420  0.05816655  0.11179368    -0.74020
O80         O  0.16245429  0.05160657  0.17061928    -0.74070
O81         O  0.17566372  0.13844054  0.19101033    -0.74000
O82         O  0.28734680  0.14398570  0.14074622    -0.73980
O83         O  0.21047760  0.15209658  0.09576537    -0.73950
O84         O  0.25134093  0.12905827  0.23771051    -0.74020
Ni85       Ni  0.21945418  0.05078006  0.14195830     1.25410
Ni86       Ni  0.23172161  0.14366488  0.16759842     1.25360
C87         C  0.25859509  0.08285992  0.24689378     0.88250
C88         C  0.19324701  0.11244879  0.06326195     0.88180
C89         C  0.29748282  0.10342054  0.11215618     0.88210
C90         C  0.14961155  0.09608237  0.18603558     0.88380
C91         C  0.06646911  0.08584861  0.28290077     0.03620
C92         C  0.08356386  0.06697269  0.23248400    -0.12530
C93         C  0.10517625  0.10221850  0.20103155     0.01120
C94         C  0.09676434  0.15395752  0.20825115    -0.11050
C95         C  0.08786044  0.17578681  0.26135119     0.03620
C96         C  0.07120943  0.14077448  0.29923033    -0.10470
H97         H  0.08844988  0.02599682  0.22437698     0.09210
H98         H  0.11236059  0.17876794  0.17973436     0.06740
H99         H  0.06492416  0.15513129  0.34148986     0.06590
C100        C  0.15748361  0.41352360  0.27210100     0.03620
C101        C  0.15204060  0.36023673  0.24692323    -0.12530
C102        C  0.11663173  0.32516791  0.26173646     0.01120
C103        C  0.08828169  0.34336294  0.29930837    -0.11050
C104        C  0.09566493  0.39333481  0.32727337     0.03620
C105        C  0.12853473  0.42890514  0.31239632    -0.10470
H106        H  0.17341091  0.34730171  0.21513888     0.09210
H107        H  0.06013436  0.31683075  0.30833046     0.06740
H108        H  0.12980325  0.46910903  0.33013891     0.06590
C109        C  0.10641761  0.23196173  0.27831197     0.01060
C110        C  0.10471969  0.26914349  0.24052558     0.01060
C111        C  0.34538467  0.21496115  0.28203495     0.01060
C112        C  0.36307888  0.24675601  0.24286901     0.01060
C113        C  0.35606265  0.06743364  0.23586401     0.03620
C114        C  0.32212600  0.04614019  0.26703223    -0.12530
C115        C  0.29327554  0.07891452  0.28846865     0.01120
C116        C  0.31279138  0.12793119  0.31081166    -0.11050
C117        C  0.34314974  0.15527110  0.27772977     0.03620
C118        C  0.36629584  0.12309957  0.24035453    -0.10470
H119        H  0.31147565  0.00467296  0.26146897     0.09210
H120        H  0.29346359  0.14805697  0.34031582     0.06740
H121        H  0.39119883  0.13964149  0.21519464     0.06590
C122        C  0.34579527  0.39126830  0.27735551     0.03620
C123        C  0.33641893  0.33740154  0.25709482    -0.12530
C124        C  0.36934593  0.30419148  0.25871010     0.01120
C125        C  0.41029884  0.32454243  0.27997713    -0.11050
C126        C  0.41928383  0.37656972  0.30255368     0.03620
C127        C  0.38789700  0.41026998  0.29878534    -0.10470
H128        H  0.30421820  0.32144465  0.24124144     0.09210
H129        H  0.43433579  0.29796656  0.28390900     0.06740
H130        H  0.39582875  0.45107855  0.31537453     0.06590
O131        O  0.45715590  0.44171952  0.47994295    -0.73930
O132        O  0.05125534  0.44709202  0.38159003    -0.73960
O133        O  0.46403086  0.43627779  0.36835651    -0.74020
O134        O  0.04300079  0.45378056  0.49402521    -0.74070
O135        O  0.02897028  0.36764929  0.49839906    -0.74000
O136        O  0.47406356  0.35167409  0.35807529    -0.73980
O137        O  0.05529079  0.36386880  0.39671939    -0.73950
O138        O  0.45018460  0.35472366  0.46094319    -0.74020
Ni139      Ni  0.50406159  0.44904288  0.43106937     1.25410
Ni140      Ni  0.50223037  0.35655503  0.42816429     1.25360
C141        C  0.43913546  0.39596000  0.48708366     0.88250
C142        C  0.06753978  0.40379453  0.37216073     0.88180
C143        C  0.45548170  0.38977777  0.34317085     0.88210
C144        C  0.04756944  0.41273112  0.51806418     0.88380
C145        C  0.22926444  0.74566817  0.11035059     0.03620
C146        C  0.20507824  0.74780350  0.16052255    -0.12530
C147        C  0.16021258  0.75593314  0.16096465     0.01120
C148        C  0.13878914  0.75994922  0.10972668    -0.11050
C149        C  0.16051242  0.75939763  0.05954682     0.03620
C150        C  0.20539718  0.75278750  0.06053706    -0.10470
H151        H  0.22118475  0.74652139  0.20029034     0.09210
H152        H  0.10550589  0.76834124  0.10971829     0.06740
H153        H  0.22156772  0.75563680  0.02194069     0.06590
C154        C  0.27928293  0.74050058  0.11004418     0.03620
C155        C  0.30217031  0.73546106  0.05917825    -0.12530
C156        C  0.34841254  0.73792712  0.05715607     0.01120
C157        C  0.37189247  0.74075465  0.10877445    -0.11050
C158        C  0.35128011  0.74262281  0.16070571     0.03620
C159        C  0.30542531  0.74329113  0.16029707    -0.10470
H160        H  0.28418483  0.73002765  0.02004760     0.09210
H161        H  0.40687881  0.74441398  0.10875120     0.06740
H162        H  0.29088451  0.74817280  0.20019762     0.06590
C163        C  0.03178640  0.75527224  0.36070465     0.03620
C164        C  0.05524803  0.75825368  0.31037193    -0.12530
C165        C  0.10143631  0.75824928  0.30833815     0.01120
C166        C  0.12429905  0.75409797  0.35828161    -0.11050
C167        C  0.10365625  0.75177215  0.40909855     0.03620
C168        C  0.05797667  0.75387613  0.41002347    -0.10470
H169        H  0.03797619  0.75998346  0.27161708     0.09210
H170        H  0.15839223  0.74938275  0.35704432     0.06740
H171        H  0.04309853  0.75129772  0.44953390     0.06590
C172        C  0.48074396  0.74964906  0.36107582     0.03620
C173        C  0.45699311  0.74811429  0.41159686    -0.12530
C174        C  0.41060667  0.73700320  0.41146419     0.01120
C175        C  0.38772358  0.72874601  0.35981489    -0.11050
C176        C  0.40853666  0.73131775  0.30921217     0.03620
C177        C  0.45461310  0.74167177  0.31028133    -0.10470
H178        H  0.47402887  0.75170011  0.45146267     0.09210
H179        H  0.35299749  0.71783820  0.35887729     0.06740
H180        H  0.46943670  0.74126589  0.27051431     0.06590
C181        C  0.11631638  0.91910457  0.26420589     0.03620
C182        C  0.10945275  0.86367790  0.25511969    -0.12530
C183        C  0.13623744  0.83620518  0.21863677     0.01120
C184        C  0.16562233  0.86790610  0.18834716    -0.11050
C185        C  0.18175815  0.91761638  0.21412666     0.03620
C186        C  0.15077246  0.94615327  0.23807825    -0.10470
H187        H  0.08401872  0.84392757  0.27668957     0.09210
H188        H  0.18734415  0.85024586  0.16005044     0.06740
H189        H  0.15925564  0.98803254  0.24873617     0.06590
C190        C  0.13885859  0.77724196  0.21414196     0.01060
C191        C  0.12398318  0.74440926  0.25386528     0.01060
C192        C  0.14130848  0.59893102  0.22574501     0.03620
C193        C  0.15158750  0.65363181  0.24181742    -0.12530
C194        C  0.11885075  0.68695368  0.23827563     0.01120
C195        C  0.07750659  0.66595610  0.21939134    -0.11050
C196        C  0.06712099  0.61287033  0.20247270     0.03620
C197        C  0.09835081  0.57923928  0.20795336    -0.10470
H198        H  0.18411340  0.66995743  0.25594257     0.09210
H199        H  0.05385042  0.69258733  0.21359201     0.06740
H200        H  0.08963605  0.53771082  0.19503727     0.06590
C201        C  0.16807657  0.60934156  0.49328841     0.03620
C202        C  0.17108880  0.65686845  0.46756102    -0.12530
C203        C  0.13264620  0.68135892  0.46150835     0.01120
C204        C  0.09334248  0.65253391  0.96845477    -0.11050
C205        C  0.09190531  0.61052223  0.99953068     0.03620
C206        C  0.12935271  0.59296145  0.01665168    -0.10470
H207        H  0.20178177  0.67434918  0.45400731     0.09210
H208        H  0.06344321  0.66837194  0.96012556     0.06740
H209        H  0.12807853  0.56452760  0.04602116     0.06590
C210        C  0.09494561  0.90700792  0.99487575     0.03620
C211        C  0.12566102  0.92423901  0.45700337    -0.12530
C212        C  0.15833767  0.89450736  0.44167648     0.01120
C213        C  0.16468393  0.85102409  0.46855624    -0.11050
C214        C  0.13373162  0.82963990  0.00215349     0.03620
C215        C  0.09814472  0.85793628  0.01656922    -0.10470
H216        H  0.12381117  0.96058383  0.43909369     0.09210
H217        H  0.19165499  0.82933667  0.45750540     0.06740
H218        H  0.07322025  0.84171213  0.04237972     0.06590
C219        C  0.13696314  0.77293928  0.00761910     0.01060
C220        C  0.12937565  0.73827288  0.45938263     0.01060
C221        C  0.37271428  0.75193261  0.00420686     0.01060
C222        C  0.38631964  0.71713460  0.46157180     0.01060
C223        C  0.40827537  0.89364501  0.96864752     0.03620
C224        C  0.36775806  0.90390028  0.45085689    -0.12530
C225        C  0.33050279  0.87087005  0.45792585     0.01120
C226        C  0.33332710  0.82223849  0.47604351    -0.11050
C227        C  0.37322151  0.80795004  0.99235256     0.03620
C228        C  0.41125902  0.84479144  0.99063928    -0.10470
H229        H  0.36476597  0.94052398  0.43369842     0.09210
H230        H  0.30447267  0.79444234  0.47338027     0.06740
H231        H  0.44214214  0.83576844  0.00607727     0.06590
C232        C  0.33711984  0.57118227  0.46899125     0.03620
C233        C  0.34049335  0.62725961  0.47723605    -0.12530
C234        C  0.37677468  0.65748580  0.45631540     0.01120
C235        C  0.40642108  0.62880325  0.92668228    -0.11050
C236        C  0.41045843  0.57855897  0.93984176     0.03620
C237        C  0.37227149  0.54753713  0.94703375    -0.10470
H238        H  0.31527380  0.64583387  0.49808227     0.09210
H239        H  0.43502443  0.64854778  0.91030567     0.06740
H240        H  0.37303060  0.50573614  0.94699200     0.06590
O241        O  0.03866443  0.63898324  0.05187150    -0.73930
O242        O  0.42927924  0.61988287  0.10373355    -0.73960
O243        O  0.00852941  0.63461952  0.15090942    -0.74020
O244        O  0.46143072  0.62338462  0.00586636    -0.74070
O245        O  0.44780776  0.53710494  0.00785490    -0.74000
O246        O  0.02301372  0.55175002  0.13766445    -0.73980
O247        O  0.43648566  0.53794016  0.12015288    -0.73950
O248        O  0.03488422  0.55220114  0.02917166    -0.74020
Ni249      Ni  0.48422966  0.63222824  0.07853364     1.25410
Ni250      Ni  0.48524988  0.54017927  0.07295816     1.25360
C251        C  0.05348151  0.59910326  0.02830329     0.88250
C252        C  0.41894984  0.58029100  0.12960644     0.88180
C253        C  0.02954288  0.59778069  0.16418889     0.88210
C254        C  0.44318004  0.57862855  0.98465103     0.88380
C255        C  0.33113678  0.57337536  0.23293663     0.03620
C256        C  0.36109763  0.55580117  0.19479478    -0.12530
C257        C  0.39259593  0.59122977  0.17645479     0.01120
C258        C  0.39880984  0.64267466  0.20088488    -0.11050
C259        C  0.36994940  0.66216198  0.23671808     0.03620
C260        C  0.33547761  0.62755533  0.25429488    -0.10470
H261        H  0.36034287  0.51478515  0.17954583     0.09210
H262        H  0.42621599  0.66938014  0.18994157     0.06740
H263        H  0.31345304  0.64196365  0.28444169     0.06590
C264        C  0.41559466  0.90112358  0.21480027     0.03620
C265        C  0.41280152  0.84640860  0.19868572    -0.12530
C266        C  0.39346812  0.81090685  0.23414117     0.01120
C267        C  0.37765377  0.83114036  0.28403551    -0.11050
C268        C  0.37126722  0.88345414  0.29196963     0.03620
C269        C  0.39684464  0.91904111  0.26459989    -0.10470
H270        H  0.42165833  0.83241477  0.15732726     0.09210
H271        H  0.35910928  0.80467307  0.30879789     0.06740
H272        H  0.39220638  0.96003985  0.27291346     0.06590
C273        C  0.38102240  0.71866474  0.25493484     0.01060
C274        C  0.37832324  0.75456621  0.21602253     0.01060
O275        O  0.22436975  0.86881737  0.26410142    -0.73930
O276        O  0.26798465  0.84416249  0.40303308    -0.73960
O277        O  0.19116675  0.86165921  0.36374400    -0.74020
O278        O  0.29966002  0.85249230  0.30566960    -0.74070
O279        O  0.31711969  0.93909338  0.32178832    -0.74000
O280        O  0.20953202  0.94656394  0.39365008    -0.73980
O281        O  0.28902572  0.93025219  0.42229555    -0.73950
O282        O  0.23364812  0.95541100  0.28724366    -0.74020
Ni283      Ni  0.24483084  0.85407442  0.33302222     1.25410
Ni284      Ni  0.26275271  0.94667725  0.35629062     1.25360
C285        C  0.21743060  0.91490098  0.25469584     0.88250
C286        C  0.29171382  0.88240491  0.43022793     0.88180
C287        C  0.18566908  0.90296317  0.39529368     0.88210
C288        C  0.32753787  0.89306829  0.30770161     0.88380
C289        C  0.30157507  0.53158917  0.25473628    -0.04970
C290        C  0.28466905  0.48842599  0.21671666    -0.32400
C291        C  0.29289242  0.43757250  0.22588429     0.36850
C292        C  0.31411363  0.43022702  0.27606953    -0.05330
C293        C  0.31655388  0.47109266  0.32002153    -0.32300
C294        C  0.31012370  0.52201225  0.30943532     0.36760
H295        H  0.27366174  0.49548256  0.17586688     0.17130
O296        O  0.28592434  0.39787615  0.18305432    -0.59800
H297        H  0.33077788  0.46553872  0.35993036     0.17140
O298        O  0.32185244  0.56323388  0.34929905    -0.59890
H299        H  0.29426194  0.57565837  0.36117371     0.44140
H300        H  0.31328170  0.39910943  0.16291671     0.44090
C301        C  0.41542615  0.93816601  0.17267188    -0.04970
C302        C  0.37279756  0.93972976  0.15423576    -0.32400
C303        C  0.35276153  0.98445136  0.17010641     0.36850
C304        C  0.37747912  0.02988387  0.19823453    -0.05330
C305        C  0.42279617  0.03236024  0.19931243    -0.32300
C306        C  0.44195256  0.98652278  0.18389476     0.36760
H307        H  0.35244161  0.90339679  0.14004988     0.17130
O308        O  0.30867808  0.98168602  0.16245508    -0.59800
H309        H  0.44287706  0.06748758  0.21752280     0.17140
O310        O  0.48581688  0.98738522  0.18937481    -0.59890
H311        H  0.49694634  0.99791392  0.15370104     0.44140
H312        H  0.30188543  0.96873192  0.12274093     0.44090
C313        C  0.18387260  0.45773556  0.24933765    -0.04970
C314        C  0.20154181  0.50146406  0.28656958    -0.32400
C315        C  0.19541548  0.55274859  0.27561702     0.36850
C316        C  0.17292105  0.55973334  0.22634463    -0.05330
C317        C  0.16825652  0.51799758  0.18352801    -0.32300
C318        C  0.17272315  0.46684968  0.19515759     0.36760
H319        H  0.21308494  0.49524701  0.32769243     0.17130
O320        O  0.20529362  0.59380071  0.31642061    -0.59800
H321        H  0.15333642  0.52333194  0.14389360     0.17140
O322        O  0.15737124  0.42559858  0.15686653    -0.59890
H323        H  0.12623213  0.41841386  0.16438486     0.44140
H324        H  0.23393299  0.61103426  0.30710534     0.44090
C325        C  0.06099410  0.04679493  0.32290565    -0.04970
C326        C  0.03158246  0.00170779  0.30605175    -0.32400
C327        C  0.04744279  0.95318881  0.29396848     0.36850
C328        C  0.09172213  0.95044983  0.30414695    -0.05330
C329        C  0.11555429  0.99126400  0.33936538    -0.32300
C330        C  0.09995454  0.03978390  0.35010290     0.36760
H331        H  0.99930496  0.00624362  0.29136940     0.17130
O332        O  0.02143918  0.91189948  0.26527770    -0.59800
H333        H  0.14927866  0.98920544  0.34940585     0.17140
O334        O  0.12813837  0.08306535  0.37062828    -0.59890
H335        H  0.14268190  0.07344568  0.40432824     0.44140
H336        H  0.02788960  0.91358253  0.22553836     0.44090
C337        C  0.29816997  0.43365524  0.02871775    -0.04970
C338        C  0.30663692  0.47902902  0.06719253    -0.32400
C339        C  0.30962254  0.52945271  0.04958043     0.36850
C340        C  0.30409516  0.53469476  0.49293253    -0.05330
C341        C  0.28453701  0.49061876  0.45793349    -0.32300
C342        C  0.28220159  0.43991789  0.47522013     0.36760
H343        H  0.31934217  0.47493815  0.10804846     0.17130
O344        O  0.32505263  0.57239282  0.08576918    -0.59800
H345        H  0.27654394  0.49469772  0.41508961     0.17140
O346        O  0.27089511  0.39685379  0.43710551    -0.59890
H347        H  0.29764616  0.39104563  0.41722194     0.44140
H348        H  0.29939060  0.58323344  0.10514026     0.44090
C349        C  0.44015843  0.94222878  0.97913898    -0.04970
C350        C  0.43870503  0.96416664  0.03369819    -0.32400
C351        C  0.41302017  0.00486121  0.04122788     0.36850
C352        C  0.41488971  0.04465928  0.50490001    -0.05330
C353        C  0.43188781  0.03101816  0.45265787    -0.32300
C354        C  0.44263186  0.97882945  0.43867544     0.36760
H355        H  0.43698316  0.93703755  0.06506390     0.17130
O356        O  0.37442202  0.99142508  0.06447341    -0.59800
H357        H  0.43186168  0.05749869  0.42077704     0.17140
O358        O  0.45022174  0.96181620  0.38464360    -0.59890
H359        H  0.42518803  0.96983506  0.36246114     0.44140
H360        H  0.35282934  0.97985485  0.03341647     0.44090
C361        C  0.18438695  0.45890186  0.00328962    -0.04970
C362        C  0.17594451  0.47371693  0.45047903    -0.32400
C363        C  0.18136459  0.52720732  0.44129633     0.36850
C364        C  0.19578994  0.56641936  0.48522873    -0.05330
C365        C  0.21298176  0.55021430  0.03355840    -0.32300
C366        C  0.20766084  0.49690100  0.04273715     0.36760
H367        H  0.15767869  0.44550606  0.41995227     0.17130
O368        O  0.16185875  0.54170421  0.39487490    -0.59800
H369        H  0.22367792  0.57935283  0.06826604     0.17140
O370        O  0.21849486  0.48428387  0.09453405    -0.59890
H371        H  0.22478164  0.44726327  0.09043016     0.44140
H372        H  0.13061433  0.54014311  0.40251114     0.44090
C373        C  0.05050926  0.05031330  0.51888479    -0.04970
C374        C  0.05621000  0.02494581  0.56716087    -0.32400
C375        C  0.06377895  0.97181281  0.56232320     0.36850
C376        C  0.06176770  0.94324898  0.00930181    -0.05330
C377        C  0.04235419  0.96503748  0.96511215    -0.32300
C378        C  0.03620423  0.01847643  0.97017609     0.36760
H379        H  0.06528069  0.04867720  0.60614351     0.17130
O380        O  0.08140472  0.95228457  0.60716557    -0.59800
H381        H  0.03876658  0.94320440  0.92411984     0.17140
O382        O  0.02558290  0.04078755  0.92349512    -0.59890
H383        H  0.01234324  0.07306954  0.93545011     0.44140
H384        H  0.05668923  0.93240601  0.62374416     0.44090
C385        C  0.20571464  0.25163293  0.88457421     0.03620
C386        C  0.18293706  0.25862285  0.93514403    -0.12530
C387        C  0.13669385  0.25513561  0.93710908     0.01120
C388        C  0.11296848  0.24848650  0.88543202    -0.11050
C389        C  0.13344022  0.24395717  0.83358153     0.03620
C390        C  0.17942885  0.24500913  0.83413172    -0.10470
H391        H  0.20104435  0.26593657  0.97422580     0.09210
H392        H  0.07797014  0.24414919  0.88556880     0.06740
H393        H  0.19402425  0.23865925  0.79441520     0.06590
C394        C  0.25584048  0.24815044  0.88511951     0.03620
C395        C  0.27939956  0.24116784  0.93521068    -0.12530
C396        C  0.32429220  0.23481273  0.93667903     0.01120
C397        C  0.34633947  0.23460687  0.88659249    -0.11050
C398        C  0.32511312  0.23869228  0.83510723     0.03620
C399        C  0.28031140  0.24694290  0.83533351    -0.10470
H400        H  0.26282558  0.23754756  0.97344091     0.09210
H401        H  0.37942969  0.22552091  0.88668853     0.06740
H402        H  0.26428767  0.24827263  0.79551111     0.06590
C403        C  0.00520277  0.23950075  0.63399929     0.03620
C404        C  0.02912815  0.24300298  0.58350551    -0.12530
C405        C  0.07569918  0.25424733  0.58377717     0.01120
C406        C  0.09824258  0.26235110  0.63574191    -0.11050
C407        C  0.07720742  0.25909279  0.68616317     0.03620
C408        C  0.03125571  0.24744028  0.68479067    -0.10470
H409        H  0.01205063  0.24036064  0.54374641     0.09210
H410        H  0.13297769  0.27325561  0.63709419     0.06740
H411        H  0.01646727  0.24625673  0.72446465     0.06590
C412        C  0.45400407  0.23208429  0.63483146     0.03620
C413        C  0.42739010  0.23139355  0.58543822    -0.12530
C414        C  0.38195925  0.23567630  0.58667803     0.01120
C415        C  0.36190176  0.23591409  0.63821507    -0.11050
C416        C  0.38479904  0.23135742  0.68815143     0.03620
C417        C  0.43076596  0.22988201  0.68561797    -0.10470
H418        H  0.44205369  0.23196769  0.54558271     0.09210
H419        H  0.32836104  0.24311096  0.63993772     0.06740
H420        H  0.44809547  0.22873284  0.72445287     0.06590
C421        C  0.08400705  0.09474575  0.01080634     0.03620
C422        C  0.07735747  0.14667138  0.00107207    -0.12530
C423        C  0.11409848  0.18507975  0.99981566     0.01120
C424        C  0.15490611  0.17183902  0.51368449    -0.11050
C425        C  0.16073173  0.12084331  0.52224826     0.03620
C426        C  0.12614265  0.08177834  0.51301239    -0.10470
H427        H  0.04497712  0.15699508  0.99548609     0.09210
H428        H  0.18161547  0.20238448  0.52374635     0.06740
H429        H  0.13121730  0.04151960  0.51763410     0.06590
C430        C  0.11305293  0.24103426  0.99017941     0.01060
C431        C  0.10065600  0.27492509  0.53415910     0.01060
C432        C  0.15129832  0.42068894  0.52541636     0.03620
C433        C  0.11812139  0.44425074  0.05214092    -0.12530
C434        C  0.08073369  0.41372235  0.06239712     0.01120
C435        C  0.08574157  0.36378314  0.07521992    -0.11050
C436        C  0.11247047  0.33444359  0.54103797     0.03620
C437        C  0.14751697  0.36457722  0.51670936    -0.10470
H438        H  0.11682421  0.48544813  0.05242113     0.09210
H439        H  0.05848971  0.34492155  0.09523242     0.06740
H440        H  0.17147618  0.34626911  0.49320724     0.06590
C441        C  0.34682902  0.21882627  0.98812208     0.01060
C442        C  0.35712499  0.25238118  0.53681609     0.01060
C443        C  0.38917121  0.09112139  0.01776756     0.03620
C444        C  0.38230856  0.13137852  0.98281448    -0.12530
C445        C  0.34675354  0.16135830  0.99322387     0.01120
C446        C  0.31579165  0.14331799  0.52914365    -0.11050
C447        C  0.32739886  0.11242240  0.56921562     0.03620
C448        C  0.36658804  0.09282883  0.56753241    -0.10470
H449        H  0.40446524  0.14046762  0.95053304     0.09210
H450        H  0.28646350  0.16209797  0.53366855     0.06740
H451        H  0.37708707  0.07532228  0.60325645     0.06590
C452        C  0.32967223  0.39544647  0.53269077     0.03620
C453        C  0.32118263  0.33994848  0.53533462    -0.12530
C454        C  0.35720696  0.31055566  0.53846126     0.01120
C455        C  0.39838904  0.33762588  0.04112934    -0.11050
C456        C  0.40499461  0.38740606  0.02488548     0.03620
C457        C  0.37208271  0.41779197  0.02588286    -0.10630
H458        H  0.28833808  0.32087341  0.53538403     0.09210
H459        H  0.42629301  0.31665398  0.04308774     0.06740
H460        H  0.37896577  0.45791034  0.01647242     0.06590
O461        O  0.24392396  0.04252873  0.71329531    -0.73930
O462        O  0.19655733  0.06531236  0.57322571    -0.73960
O463        O  0.27553176  0.05815760  0.61185711    -0.74020
O464        O  0.16239602  0.05154108  0.67067326    -0.74070
O465        O  0.17557882  0.13837504  0.69108366    -0.74000
O466        O  0.28726488  0.14397521  0.64082888    -0.73980
O467        O  0.21039857  0.15206147  0.59584509    -0.73950
O468        O  0.25126921  0.12901229  0.73778456    -0.74020
Ni469      Ni  0.21939879  0.05074220  0.64201837     1.25410
Ni470      Ni  0.23163953  0.14362589  0.66767857     1.25360
C471        C  0.25856695  0.08282098  0.74693654     0.88250
C472        C  0.19319837  0.11241391  0.56331761     0.88180
C473        C  0.29740775  0.10341869  0.61222988     0.88210
C474        C  0.14953638  0.09600824  0.68608432     0.88380
C475        C  0.06641903  0.08576946  0.78293500     0.03620
C476        C  0.08348592  0.06688409  0.73250305    -0.12530
C477        C  0.10508777  0.10212297  0.70103552     0.01120
C478        C  0.09666201  0.15385727  0.70823954    -0.11050
C479        C  0.08780906  0.17570113  0.76135564     0.03620
C480        C  0.07117752  0.14069810  0.79925683    -0.10470
H481        H  0.08837218  0.02590868  0.72439582     0.09210
H482        H  0.11223923  0.17865246  0.67969535     0.06740
H483        H  0.06492476  0.15506258  0.84152522     0.06590
C484        C  0.15740869  0.41346804  0.77196737     0.03620
C485        C  0.15195650  0.36018317  0.74679896    -0.12530
C486        C  0.11663489  0.32507812  0.76176995     0.01120
C487        C  0.08837959  0.34323294  0.79950354    -0.11050
C488        C  0.09575834  0.39322708  0.82741787     0.03620
C489        C  0.12853257  0.42883273  0.81236508    -0.10470
H490        H  0.17325212  0.34727351  0.71491018     0.09210
H491        H  0.06028554  0.31667063  0.80863554     0.06740
H492        H  0.12977390  0.46904858  0.83004489     0.06590
C493        C  0.10640141  0.23186710  0.77830440     0.01060
C494        C  0.10470583  0.26906410  0.74053273     0.01060
C495        C  0.34538783  0.21497992  0.78203772     0.01060
C496        C  0.36311692  0.24679527  0.74291432     0.01060
C497        C  0.35610884  0.06747980  0.73582529     0.03620
C498        C  0.32216079  0.04615001  0.76695479    -0.12530
C499        C  0.29330583  0.07890197  0.78843981     0.01120
C500        C  0.31280160  0.12793111  0.81078039    -0.11050
C501        C  0.34315335  0.15529031  0.77770841     0.03620
C502        C  0.36632181  0.12314426  0.74034208    -0.10470
H503        H  0.31152554  0.00467649  0.76136264     0.09210
H504        H  0.29346480  0.14804840  0.84028066     0.06740
H505        H  0.39123424  0.13970425  0.71520835     0.06590
C506        C  0.34594078  0.39132277  0.77750125     0.03620
C507        C  0.33654277  0.33747107  0.75719365    -0.12530
C508        C  0.36943484  0.30421795  0.75882883     0.01120
C509        C  0.41037720  0.32450188  0.78019957    -0.11050
C510        C  0.41939142  0.37652412  0.80279191     0.03620
C511        C  0.38803725  0.41026811  0.79899314    -0.10470
H512        H  0.30434655  0.32155093  0.74129183     0.09210
H513        H  0.43437942  0.29788647  0.78416395     0.06740
H514        H  0.39599088  0.45106926  0.81559650     0.06590
O515        O  0.45729856  0.44173883  0.98014587    -0.73930
O516        O  0.05139688  0.44702834  0.88177741    -0.73960
O517        O  0.46417529  0.43622795  0.86855889    -0.74020
O518        O  0.04315765  0.45379895  0.99423410    -0.74070
O519        O  0.02912583  0.36767432  0.99864208    -0.74000
O520        O  0.47417171  0.35161172  0.85832441    -0.73980
O521        O  0.05541462  0.36380992  0.89693077    -0.73950
O522        O  0.45033363  0.35473605  0.96121162    -0.74020
Ni523      Ni  0.50421269  0.44902262  0.93126720     1.25410
Ni524      Ni  0.50236880  0.35653693  0.92841125     1.25360
C525        C  0.43926356  0.39598619  0.98729858     0.88250
C526        C  0.06766300  0.40371764  0.87234314     0.88180
C527        C  0.45559977  0.38971809  0.84340327     0.88210
C528        C  0.04772181  0.41276295  0.01829904     0.88380
C529        C  0.22927135  0.74561919  0.61034443     0.03620
C530        C  0.20508632  0.74776801  0.66051620    -0.12530
C531        C  0.16022231  0.75590334  0.66095393     0.01120
C532        C  0.13879785  0.75989967  0.60971302    -0.11050
C533        C  0.16051736  0.75931013  0.55952950     0.03620
C534        C  0.20540422  0.75271718  0.56052647    -0.10470
H535        H  0.22119263  0.74649477  0.70028607     0.09210
H536        H  0.10551455  0.76829146  0.60969964     0.06740
H537        H  0.22157654  0.75556017  0.52193032     0.06590
C538        C  0.27928851  0.74045979  0.61003950     0.03620
C539        C  0.30216889  0.73536807  0.55917187    -0.12530
C540        C  0.34841091  0.73783933  0.55714617     0.01120
C541        C  0.37189828  0.74074276  0.60876920    -0.11050
C542        C  0.35129049  0.74266028  0.66070302     0.03620
C543        C  0.30543572  0.74331218  0.66029411    -0.10470
H544        H  0.28417835  0.72989425  0.52004289     0.09210
H545        H  0.40688502  0.74441800  0.60874369     0.06740
H546        H  0.29089829  0.74823041  0.70019373     0.06590
C547        C  0.03179352  0.75539757  0.86070792     0.03620
C548        C  0.05524291  0.75830907  0.81036146    -0.12530
C549        C  0.10142815  0.75829459  0.80831506     0.01120
C550        C  0.12430553  0.75420922  0.85826596    -0.11050
C551        C  0.10367731  0.75195841  0.90910211     0.03620
C552        C  0.05799665  0.75407052  0.91003282    -0.10470
H553        H  0.03796422  0.76000344  0.77160502     0.09210
H554        H  0.15839597  0.74948070  0.85702325     0.06740
H555        H  0.04312605  0.75155082  0.94955502     0.06590
C556        C  0.48074930  0.74977098  0.86108428     0.03620
C557        C  0.45700098  0.74825223  0.91160825    -0.12530
C558        C  0.41061468  0.73712870  0.91148131     0.01120
C559        C  0.38772997  0.72884242  0.85983069    -0.11050
C560        C  0.40854056  0.73140499  0.80922342     0.03620
C561        C  0.45461530  0.74177156  0.81029102    -0.10470
H562        H  0.47404043  0.75185005  0.95147266     0.09210
H563        H  0.35300536  0.71792447  0.85889699     0.06740
H564        H  0.46943348  0.74135980  0.77052094     0.06590
C565        C  0.11633002  0.91908602  0.76415979     0.03620
C566        C  0.10945988  0.86366439  0.75504769    -0.12530
C567        C  0.13628296  0.83619339  0.71862311     0.01120
C568        C  0.16572111  0.86788487  0.68839854    -0.11050
C569        C  0.18181985  0.91760565  0.71418436     0.03620
C570        C  0.15080742  0.94613799  0.73807541    -0.10470
H571        H  0.08398901  0.84391349  0.77655529     0.09210
H572        H  0.18747891  0.85021277  0.66016305     0.06740
H573        H  0.15928511  0.98801557  0.74875082     0.06590
C574        C  0.13887221  0.77722938  0.71412440     0.01060
C575        C  0.12395648  0.74441055  0.75383795     0.01060
C576        C  0.14119010  0.59891635  0.72564612     0.03620
C577        C  0.15150042  0.65360922  0.74172992    -0.12530
C578        C  0.11877785  0.68695752  0.73824178     0.01120
C579        C  0.07742112  0.66599676  0.71936342    -0.11050
C580        C  0.06700671  0.61291636  0.70244422     0.03620
C581        C  0.09821447  0.57925752  0.70791752    -0.10470
H582        H  0.18403999  0.66991100  0.75581758     0.09210
H583        H  0.05378123  0.69264613  0.71355906     0.06740
H584        H  0.08947100  0.53773162  0.69501445     0.06590
C585        C  0.16803900  0.60936626  0.99296559     0.03620
C586        C  0.17105905  0.65697316  0.96738094    -0.12530
C587        C  0.13263098  0.68153336  0.96149499     0.01120
C588        C  0.09336709  0.65228836  0.46835452    -0.11050
C589        C  0.09191833  0.61038300  0.49959358     0.03620
C590        C  0.12937609  0.59298572  0.51697498    -0.10470
H591        H  0.20174538  0.67446088  0.95381438     0.09210
H592        H  0.06345803  0.66803619  0.45984662     0.06740
H593        H  0.12810507  0.56469644  0.54652175     0.06590
C594        C  0.09496894  0.90688223  0.49480649     0.03620
C595        C  0.12566550  0.92440141  0.95712399    -0.12530
C596        C  0.15837372  0.89470480  0.94185062     0.01120
C597        C  0.16471879  0.85122299  0.96873564    -0.11050
C598        C  0.13373467  0.82949344  0.50206023     0.03620
C599        C  0.09817651  0.85782389  0.51652466    -0.10470
H600        H  0.12381090  0.96074194  0.93920479     0.09210
H601        H  0.19171060  0.82956004  0.95772026     0.06740
H602        H  0.07327837  0.84163486  0.54239296     0.06590
C603        C  0.13696399  0.77280248  0.50758633     0.01060
C604        C  0.12939614  0.73845020  0.95938330     0.01060
C605        C  0.37270367  0.75180462  0.50418079     0.01060
C606        C  0.38633677  0.71726698  0.96159853     0.01060
C607        C  0.40829354  0.89339704  0.46837480     0.03620
C608        C  0.36770579  0.90426207  0.95139950    -0.12530
C609        C  0.33047284  0.87112742  0.95826973     0.01120
C610        C  0.33333411  0.82242014  0.97619481    -0.11050
C611        C  0.37320446  0.80779722  0.49227810     0.03620
C612        C  0.41124232  0.84462721  0.49055670    -0.10470
H613        H  0.36468930  0.94098452  0.93446359     0.09210
H614        H  0.30449839  0.79458885  0.97343064     0.06740
H615        H  0.44209944  0.83566790  0.50615311     0.06590
C616        C  0.33717301  0.57129596  0.96903170     0.03620
C617        C  0.34052690  0.62737382  0.97725766    -0.12530
C618        C  0.37681995  0.65761394  0.95637424     0.01120
C619        C  0.40633317  0.62865922  0.42655301    -0.11050
C620        C  0.41038904  0.57842789  0.43973197     0.03620
C621        C  0.37220290  0.54741170  0.44695471    -0.10470
H622        H  0.31528297  0.64593870  0.99805895     0.09210
H623        H  0.43491791  0.64838557  0.41011545     0.06740
H624        H  0.37295498  0.50560771  0.44689367     0.06590
O625        O  0.03860679  0.63893216  0.55173634    -0.73930
O626        O  0.42921526  0.61994297  0.60361593    -0.73960
O627        O  0.00847353  0.63469850  0.65078659    -0.74020
O628        O  0.46136795  0.62331610  0.50572590    -0.74070
O629        O  0.44774905  0.53704832  0.50779704    -0.74000
O630        O  0.02288803  0.55179283  0.63766797    -0.73980
O631        O  0.43637537  0.53799731  0.62007761    -0.73950
O632        O  0.03483154  0.55212964  0.52919231    -0.74020
Ni633      Ni  0.48416912  0.63223124  0.57839885     1.25410
Ni634      Ni  0.48516093  0.54017616  0.57293314     1.25360
C635        C  0.05344505  0.59901755  0.52828202     0.88250
C636        C  0.41886208  0.58036584  0.62950423     0.88180
C637        C  0.02944179  0.59784555  0.66413806     0.88210
C638        C  0.44311687  0.57854508  0.48455051     0.88380
C639        C  0.33114437  0.57344368  0.73297441     0.03620
C640        C  0.36105702  0.55588811  0.69475475    -0.12530
C641        C  0.39251386  0.59132837  0.67634979     0.01120
C642        C  0.39874402  0.64277062  0.70077973    -0.11050
C643        C  0.36994585  0.66223790  0.73672027     0.03620
C644        C  0.33550773  0.62761957  0.75435909    -0.10470
H645        H  0.36030342  0.51487385  0.67950003     0.09210
H646        H  0.42612664  0.66948321  0.68978470     0.06740
H647        H  0.31352599  0.64201749  0.78456956     0.06590
C648        C  0.41557696  0.90120004  0.71476803     0.03620
C649        C  0.41279525  0.84648252  0.69866491    -0.12530
C650        C  0.39345733  0.81098187  0.73411987     0.01120
C651        C  0.37762287  0.83121363  0.78399893    -0.11050
C652        C  0.37123231  0.88352672  0.79193991     0.03620
C653        C  0.39677355  0.91911713  0.76452750    -0.10470
H654        H  0.42167960  0.83248035  0.65732102     0.09210
H655        H  0.35909616  0.80473843  0.80876912     0.06740
H656        H  0.39212582  0.96011283  0.77282872     0.06590
C657        C  0.38103097  0.71874065  0.75494124     0.01060
C658        C  0.37833274  0.75463339  0.71601732     0.01060
O659        O  0.22438562  0.86885617  0.76428801    -0.73930
O660        O  0.26799599  0.84436827  0.90328655    -0.73960
O661        O  0.19118339  0.86181579  0.86393414    -0.74020
O662        O  0.29967273  0.85257757  0.80590190    -0.74070
O663        O  0.31712564  0.93918866  0.82187265    -0.74000
O664        O  0.20955481  0.94673441  0.89376953    -0.73980
O665        O  0.28904440  0.93046436  0.92243103    -0.73950
O666        O  0.23366036  0.95546503  0.78732719    -0.74020
Ni667      Ni  0.24484650  0.85419541  0.83324355     1.25410
Ni668      Ni  0.26276852  0.94681028  0.85639393     1.25360
C669        C  0.21745807  0.91492571  0.75481194     0.88250
C670        C  0.29171490  0.88263548  0.93045803     0.88180
C671        C  0.18569391  0.90313827  0.89545522     0.88210
C672        C  0.32753835  0.89315373  0.80781868     0.88380
C673        C  0.30163299  0.53163927  0.75483075    -0.04970
C674        C  0.28472459  0.48844457  0.71685045    -0.32400
C675        C  0.29300948  0.43761465  0.72602622     0.36850
C676        C  0.31428533  0.43031617  0.77619296    -0.05330
C677        C  0.31673422  0.47120259  0.82012467    -0.32300
C678        C  0.31023887  0.52209852  0.80952619     0.36760
H679        H  0.27366704  0.49546616  0.67600853     0.17130
O680        O  0.28603252  0.39789974  0.68321651    -0.59800
H681        H  0.33097685  0.46568105  0.86003291     0.17140
O682        O  0.32195791  0.56334504  0.84936360    -0.59890
H683        H  0.29436443  0.57578174  0.86120885     0.44140
H684        H  0.31337362  0.39914926  0.66304309     0.44090
C685        C  0.41550910  0.93825935  0.67263963    -0.04970
C686        C  0.37291800  0.93986323  0.65408903    -0.32400
C687        C  0.35286945  0.98457234  0.66997114     0.36850
C688        C  0.37756269  0.02997150  0.69819194    -0.05330
C689        C  0.42288054  0.03244273  0.69934414    -0.32300
C690        C  0.44203945  0.98660580  0.68392992     0.36760
H691        H  0.35256750  0.90354099  0.63984502     0.17130
O692        O  0.30878026  0.98178541  0.66234541    -0.59800
H693        H  0.44295101  0.06755567  0.71761165     0.17140
O694        O  0.48589976  0.98745749  0.68945122    -0.59890
H695        H  0.49703918  0.99781288  0.65371676     0.44140
H696        H  0.30195069  0.96871847  0.62266708     0.44090
C697        C  0.18372074  0.45768494  0.74912069    -0.04970
C698        C  0.20147159  0.50140686  0.78630582    -0.32400
C699        C  0.19535225  0.55269748  0.77537248     0.36850
C700        C  0.17278724  0.55969426  0.72615660    -0.05330
C701        C  0.16803398  0.51794968  0.68334613    -0.32300
C702        C  0.17245502  0.46679340  0.69497864     0.36760
H703        H  0.21308254  0.49518911  0.82739855     0.17130
O704        O  0.20530834  0.59374876  0.81615888    -0.59800
H705        H  0.15306709  0.52328612  0.64373834     0.17140
O706        O  0.15696569  0.42554935  0.65675131    -0.59890
H707        H  0.12583421  0.41846740  0.66436057     0.44140
H708        H  0.23396755  0.61090716  0.80681913     0.44090
C709        C  0.06096086  0.04672192  0.82294996    -0.04970
C710        C  0.03155857  0.00162212  0.80611018    -0.32400
C711        C  0.04744132  0.95312345  0.79397095     0.36850
C712        C  0.09173040  0.95041411  0.80411139    -0.05330
C713        C  0.11555420  0.99122218  0.83934680    -0.32300
C714        C  0.09993141  0.03972240  0.85012797     0.36760
H715        H  0.99926640  0.00614106  0.79146944     0.17130
O716        O  0.02144416  0.91183245  0.76527311    -0.59800
H717        H  0.14928292  0.98918169  0.84937359     0.17140
O718        O  0.12809973  0.08300821  0.87067730    -0.59890
H719        H  0.14260954  0.07339282  0.90440351     0.44140
H720        H  0.02787937  0.91353870  0.72553236     0.44090
C721        C  0.29810903  0.43358696  0.52875974    -0.04970
C722        C  0.30657427  0.47897617  0.56721339    -0.32400
C723        C  0.30956669  0.52938687  0.54956745     0.36850
C724        C  0.30414770  0.53479151  0.99295188    -0.05330
C725        C  0.28459359  0.49072561  0.95793023    -0.32300
C726        C  0.28226008  0.44001243  0.97518806     0.36760
H727        H  0.31926823  0.47490522  0.60808067     0.17130
O728        O  0.32498458  0.57234687  0.58573401    -0.59800
H729        H  0.27660377  0.49482231  0.91508943     0.17140
O730        O  0.27095358  0.39696418  0.93705335    -0.59890
H731        H  0.29770779  0.39115616  0.91717709     0.44140
H732        H  0.29932813  0.58314698  0.60514807     0.44090
C733        C  0.44003380  0.94207856  0.47914115    -0.04970
C734        C  0.43826041  0.96390343  0.53369365    -0.32400
C735        C  0.41249824  0.00452918  0.54103587     0.36850
C736        C  0.41514741  0.04487560  0.00495185    -0.05330
C737        C  0.43191365  0.03111860  0.95259166    -0.32300
C738        C  0.44262103  0.97891694  0.93861216     0.36760
H739        H  0.43638166  0.93670789  0.56498930     0.17130
O740        O  0.37371402  0.99100647  0.56384166    -0.59800
H741        H  0.43172147  0.05751302  0.92064363     0.17140
O742        O  0.44998302  0.96182345  0.88453600    -0.59890
H743        H  0.42470832  0.96951224  0.86258670     0.44140
H744        H  0.35229962  0.97961222  0.53254895     0.44090
C745        C  0.18442206  0.45877838  0.50334364    -0.04970
C746        C  0.17587689  0.47374466  0.95039198    -0.32400
C747        C  0.18134545  0.52720569  0.94107811     0.36850
C748        C  0.19580120  0.56648926  0.98492971    -0.05330
C749        C  0.21293963  0.55006391  0.53383252    -0.32300
C750        C  0.20765179  0.49672004  0.54288473     0.36760
H751        H  0.15758363  0.44549399  0.91993236     0.17130
O752        O  0.16184227  0.54163635  0.89462115    -0.59800
H753        H  0.22359303  0.57914726  0.56860470     0.17140
O754        O  0.21845639  0.48400450  0.59465325    -0.59890
H755        H  0.22472179  0.44697554  0.59049209     0.44140
H756        H  0.13060392  0.54014443  0.90227443     0.44090
C757        C  0.05046754  0.05041014  0.01894455    -0.04970
C758        C  0.05613487  0.02502875  0.06721786    -0.32400
C759        C  0.06369883  0.97189459  0.06237361     0.36850
C760        C  0.06181113  0.94314769  0.50925988    -0.05330
C761        C  0.04236606  0.96492123  0.46508289    -0.32300
C762        C  0.03622564  0.01836391  0.47013329     0.36760
H763        H  0.06518331  0.04874911  0.10621382     0.17130
O764        O  0.08128936  0.95234816  0.10722753    -0.59800
H765        H  0.03875484  0.94307472  0.42409806     0.17140
O766        O  0.02559260  0.04066009  0.42344763    -0.59890
H767        H  0.01234746  0.07293855  0.43539992     0.44140
H768        H  0.05656672  0.93240946  0.12372944     0.44090
C769        C  0.70571901  0.25165441  0.38458572     0.03620
C770        C  0.68293484  0.25859521  0.43515689    -0.12530
C771        C  0.63669159  0.25512183  0.43711942     0.01120
C772        C  0.61297221  0.24853927  0.38543998    -0.11050
C773        C  0.63345016  0.24405466  0.33359037     0.03620
C774        C  0.67943806  0.24509185  0.33414230    -0.10470
H775        H  0.70103722  0.26585883  0.47424131     0.09210
H776        H  0.57797376  0.24420816  0.38557048     0.06740
H777        H  0.69403526  0.23877243  0.29442325     0.06590
C778        C  0.75584474  0.24815522  0.38512741     0.03620
C779        C  0.77940152  0.24115849  0.43521606    -0.12530
C780        C  0.82429028  0.23478565  0.43668487     0.01120
C781        C  0.84634018  0.23458494  0.38659731    -0.11050
C782        C  0.82511762  0.23868566  0.33510917     0.03620
C783        C  0.78031680  0.24694623  0.33534044    -0.10470
H784        H  0.76282995  0.23754338  0.47344785     0.09210
H785        H  0.87942753  0.22548929  0.38669326     0.06740
H786        H  0.76429268  0.24827676  0.29551897     0.06590
C787        C  0.50520684  0.23952098  0.13399096     0.03620
C788        C  0.52913480  0.24304364  0.08349793    -0.12530
C789        C  0.57570751  0.25428355  0.08376916     0.01120
C790        C  0.59824936  0.26237770  0.13573541    -0.11050
C791        C  0.57721315  0.25913931  0.18615754     0.03620
C792        C  0.53125950  0.24747491  0.18478440    -0.10470
H793        H  0.51205827  0.24040809  0.04373909     0.09210
H794        H  0.63298462  0.27328365  0.13708993     0.06740
H795        H  0.51646602  0.24629510  0.22445620     0.06590
C796        C  0.95400406  0.23207157  0.13481761     0.03620
C797        C  0.92739522  0.23138389  0.08542121    -0.12530
C798        C  0.88196416  0.23566638  0.08665320     0.01120
C799        C  0.86189746  0.23588339  0.13818029    -0.11050
C800        C  0.88478153  0.23130407  0.18811904     0.03620
C801        C  0.93075421  0.22983552  0.18559650    -0.10470
H802        H  0.94206417  0.23197948  0.04557043     0.09210
H803        H  0.82835834  0.24308856  0.13989589     0.06740
H804        H  0.94808148  0.22867523  0.22443198     0.06590
C805        C  0.58402850  0.09466664  0.51072007     0.03620
C806        C  0.57736111  0.14660067  0.50102901    -0.12530
C807        C  0.61409418  0.18503060  0.49980285     0.01120
C808        C  0.65491015  0.17187204  0.01366902    -0.11050
C809        C  0.66072473  0.12087888  0.02225686     0.03620
C810        C  0.62611217  0.08183497  0.01311425    -0.10470
H811        H  0.54497610  0.15691339  0.49545414     0.09210
H812        H  0.68163601  0.20240504  0.02367988     0.06740
H813        H  0.63117054  0.04157945  0.01777695     0.06590
C814        C  0.61304270  0.24098894  0.49017851     0.01060
C815        C  0.60067296  0.27497744  0.03415861     0.01060
C816        C  0.65133160  0.42077842  0.02546482     0.03620
C817        C  0.61799180  0.44419401  0.55181420    -0.12530
C818        C  0.58061016  0.41366376  0.56210352     0.01120
C819        C  0.58558264  0.36373178  0.57499617    -0.11050
C820        C  0.61252860  0.33449973  0.04108110     0.03620
C821        C  0.64749657  0.36466092  0.01661406    -0.10470
H822        H  0.61663845  0.48535908  0.55175803     0.09210
H823        H  0.55827913  0.34485371  0.59490011     0.06740
H824        H  0.67136039  0.34637590  0.99290655     0.06590
C825        C  0.84681945  0.21879940  0.48813971     0.01060
C826        C  0.85713914  0.25240010  0.03680061     0.01060
C827        C  0.88898946  0.09095779  0.51772817     0.03620
C828        C  0.88218714  0.13126809  0.48281915    -0.12530
C829        C  0.84669449  0.16133721  0.49329210     0.01120
C830        C  0.81583541  0.14324874  0.02900663    -0.11050
C831        C  0.82747335  0.11241202  0.06912374     0.03620
C832        C  0.86674474  0.09299986  0.06755404    -0.10470
H833        H  0.90433120  0.14031321  0.45051114     0.09210
H834        H  0.78646445  0.16194837  0.03347508     0.06740
H835        H  0.87731798  0.07570536  0.10338621     0.06590
C836        C  0.82971784  0.39549253  0.03264171     0.03620
C837        C  0.82121186  0.33998990  0.03526399    -0.12530
C838        C  0.85722657  0.31058856  0.03847262     0.01120
C839        C  0.89836581  0.33757905  0.54098501    -0.11050
C840        C  0.90492981  0.38736055  0.52474383     0.03620
C841        C  0.87202094  0.41775236  0.52585813    -0.10630
H842        H  0.78836170  0.32092001  0.03524708     0.09210
H843        H  0.92627102  0.31659402  0.54284926     0.06740
H844        H  0.87888385  0.45787412  0.51645076     0.06590
O845        O  0.74395859  0.04256878  0.21323732    -0.73930
O846        O  0.69661292  0.06534525  0.07315457    -0.73960
O847        O  0.77559254  0.05816417  0.11178520    -0.74020
O848        O  0.66245288  0.05160618  0.17061313    -0.74070
O849        O  0.67566315  0.13844032  0.19100180    -0.74000
O850        O  0.78734617  0.14398321  0.14073805    -0.73980
O851        O  0.71047735  0.15209460  0.09575665    -0.73950
O852        O  0.75133979  0.12905724  0.23770232    -0.74020
Ni853      Ni  0.71945247  0.05077854  0.14195077     1.25410
Ni854      Ni  0.73172098  0.14366342  0.16758988     1.25360
C855        C  0.75859295  0.08285878  0.24688651     0.88250
C856        C  0.69324554  0.11244687  0.06325409     0.88180
C857        C  0.79748184  0.10341791  0.11214799     0.88210
C858        C  0.64961078  0.09608239  0.18602954     0.88380
C859        C  0.56646975  0.08584962  0.28289954     0.03620
C860        C  0.58356476  0.06697362  0.23248291    -0.12530
C861        C  0.60517643  0.10221943  0.20102963     0.01120
C862        C  0.59676500  0.15395869  0.20825004    -0.11050
C863        C  0.58786061  0.17578770  0.26134995     0.03620
C864        C  0.57120948  0.14077538  0.29922882    -0.10470
H865        H  0.58845097  0.02599779  0.22437619     0.09210
H866        H  0.61236099  0.17876947  0.17973342     0.06740
H867        H  0.56492379  0.15513219  0.34148820     0.06590
C868        C  0.65748272  0.41352439  0.27210243     0.03620
C869        C  0.65204005  0.36023768  0.24692432    -0.12530
C870        C  0.61663076  0.32516879  0.26173618     0.01120
C871        C  0.58827994  0.34336349  0.29930718    -0.11050
C872        C  0.59566282  0.39333509  0.32727284     0.03620
C873        C  0.62853308  0.42890565  0.31239698    -0.10470
H874        H  0.67341102  0.34730280  0.21514071     0.09210
H875        H  0.56013242  0.31683114  0.30832830     0.06740
H876        H  0.62980157  0.46910941  0.33013999     0.06590
C877        C  0.60641737  0.23196260  0.27831117     0.01060
C878        C  0.60471926  0.26914445  0.24052498     0.01060
C879        C  0.84538384  0.21495888  0.28203353     0.01060
C880        C  0.86307953  0.24675385  0.24286855     0.01060
C881        C  0.85605929  0.06743090  0.23586153     0.03620
C882        C  0.82212217  0.04613807  0.26702935    -0.12530
C883        C  0.79327147  0.07891287  0.28846380     0.01120
C884        C  0.81278730  0.12792928  0.31080749    -0.11050
C885        C  0.84314717  0.15526871  0.27772714     0.03620
C886        C  0.86629333  0.12309678  0.24035238    -0.10470
H887        H  0.81147167  0.00467086  0.26146676     0.09210
H888        H  0.79345914  0.14805535  0.34031093     0.06740
H889        H  0.89119710  0.13963841  0.21519336     0.06590
C890        C  0.84579696  0.39126635  0.27735502     0.03620
C891        C  0.83642033  0.33739954  0.25709489    -0.12530
C892        C  0.86934716  0.30418925  0.25871008     0.01120
C893        C  0.91030032  0.32454005  0.27997660    -0.11050
C894        C  0.91928586  0.37656775  0.30255187     0.03620
C895        C  0.88789896  0.41026806  0.29878373    -0.10470
H896        H  0.80421947  0.32144275  0.24124194     0.09210
H897        H  0.93433710  0.29796402  0.28390866     0.06740
H898        H  0.89583086  0.45107680  0.31537223     0.06590
O899        O  0.95715605  0.44171845  0.47993987    -0.73930
O900        O  0.55125360  0.44709191  0.38159076    -0.73960
O901        O  0.96403268  0.43627672  0.36835390    -0.74020
O902        O  0.54300055  0.45378017  0.49402607    -0.74070
O903        O  0.52897055  0.36764872  0.49839921    -0.74000
O904        O  0.97406756  0.35167374  0.35807197    -0.73980
O905        O  0.55528766  0.36386778  0.39671772    -0.73950
O906        O  0.95018536  0.35472282  0.46093807    -0.74020
Ni907      Ni  0.00406259  0.44904262  0.43106755     1.25410
Ni908      Ni  0.00223234  0.35655509  0.42816258     1.25360
C909        C  0.93913551  0.39595852  0.48707892     0.88250
C910        C  0.56753723  0.40379404  0.37216005     0.88180
C911        C  0.95548447  0.38977669  0.34316796     0.88210
C912        C  0.54756973  0.41273049  0.51806434     0.88380
C913        C  0.72926418  0.74566984  0.11035063     0.03620
C914        C  0.70507815  0.74780496  0.16052272    -0.12530
C915        C  0.66021258  0.75593479  0.16096519     0.01120
C916        C  0.63878894  0.75995125  0.10972748    -0.11050
C917        C  0.66051203  0.75940015  0.05954753     0.03620
C918        C  0.70539678  0.75278962  0.06053732    -0.10470
H919        H  0.72118469  0.74652256  0.20029040     0.09210
H920        H  0.60550573  0.76834345  0.10971945     0.06740
H921        H  0.72156724  0.75563902  0.02194089     0.06590
C922        C  0.77928267  0.74050207  0.11004411     0.03620
C923        C  0.80217024  0.73546321  0.05917825    -0.12530
C924        C  0.84841255  0.73792927  0.05715630     0.01120
C925        C  0.87189219  0.74075574  0.10877478    -0.11050
C926        C  0.85127960  0.74262326  0.16070592     0.03620
C927        C  0.80542486  0.74329178  0.16029706    -0.10470
H928        H  0.78418485  0.73003042  0.02004754     0.09210
H929        H  0.90687852  0.74441468  0.10875173     0.06740
H930        H  0.79088397  0.74817292  0.20019759     0.06590
C931        C  0.53178703  0.75527274  0.36070521     0.03620
C932        C  0.55524886  0.75825481  0.31037266    -0.12530
C933        C  0.60143713  0.75825017  0.30833907     0.01120
C934        C  0.62429959  0.75409765  0.35828238    -0.11050
C935        C  0.60365656  0.75177090  0.40909901     0.03620
C936        C  0.55797704  0.75387527  0.41002391    -0.10470
H937        H  0.53797721  0.75998520  0.27161780     0.09210
H938        H  0.65839275  0.74938232  0.35704515     0.06740
H939        H  0.54309874  0.75129627  0.44953417     0.06590
C940        C  0.98074329  0.74964780  0.36107534     0.03620
C941        C  0.95699260  0.74811259  0.41159644    -0.12530
C942        C  0.91060621  0.73700113  0.41146391     0.01120
C943        C  0.88772293  0.72874383  0.35981479    -0.11050
C944        C  0.90853579  0.73131579  0.30921200     0.03620
C945        C  0.95461225  0.74167031  0.31028095    -0.10470
H946        H  0.97402844  0.75169842  0.45146219     0.09210
H947        H  0.85299685  0.71783596  0.35887740     0.06740
H948        H  0.96943568  0.74126491  0.27051384     0.06590
C949        C  0.61631751  0.91910632  0.26420725     0.03620
C950        C  0.60945384  0.86367963  0.25512151    -0.12530
C951        C  0.63623764  0.83620677  0.21863748     0.01120
C952        C  0.66562172  0.86790768  0.18834669    -0.11050
C953        C  0.68175826  0.91761779  0.21412598     0.03620
C954        C  0.65077306  0.94615488  0.23807849    -0.10470
H955        H  0.58402046  0.84392946  0.27669255     0.09210
H956        H  0.68734284  0.85024747  0.16004894     0.06740
H957        H  0.65925627  0.98803425  0.24873570     0.06590
C958        C  0.63885895  0.77724356  0.21414273     0.01060
C959        C  0.62398419  0.74441076  0.25386626     0.01060
C960        C  0.64130960  0.59893243  0.22574719     0.03620
C961        C  0.65158862  0.65363326  0.24181952    -0.12530
C962        C  0.61885204  0.68695525  0.23827649     0.01120
C963        C  0.57750813  0.66595784  0.21939116    -0.11050
C964        C  0.56712257  0.61287207  0.20247279     0.03620
C965        C  0.59835210  0.57924087  0.20795459    -0.10470
H966        H  0.68411436  0.66995879  0.25594550     0.09210
H967        H  0.55385212  0.69258919  0.21359123     0.06740
H968        H  0.58963729  0.53771238  0.19503869     0.06590
C969        C  0.66807691  0.60934095  0.49329038     0.03620
C970        C  0.67108896  0.65686732  0.46756209    -0.12530
C971        C  0.63264637  0.68135770  0.46150920     0.01120
C972        C  0.59334170  0.65253886  0.96845514    -0.11050
C973        C  0.59190417  0.61052517  0.99952811     0.03620
C974        C  0.62935118  0.59296187  0.01664582    -0.10470
H975        H  0.70178184  0.67434774  0.45400779     0.09210
H976        H  0.56344267  0.66837820  0.96012811     0.06740
H977        H  0.62807658  0.56452569  0.04601246     0.06590
C978        C  0.59494393  0.90701136  0.99487865     0.03620
C979        C  0.62566130  0.92423719  0.45700139    -0.12530
C980        C  0.65833771  0.89450529  0.44167409     0.01120
C981        C  0.66468423  0.85102230  0.46855417    -0.11050
C982        C  0.63373048  0.82964370  0.00215670     0.03620
C983        C  0.59814251  0.85793888  0.01657070    -0.10470
H984        H  0.62381136  0.96058190  0.43909157     0.09210
H985        H  0.69165507  0.82933462  0.45750296     0.06740
H986        H  0.57321693  0.84171329  0.04237878     0.06590
C987        C  0.63696249  0.77294275  0.00762038     0.01060
C988        C  0.62937590  0.73827159  0.45938305     0.01060
C989        C  0.87271474  0.75193555  0.00420751     0.01060
C990        C  0.88631944  0.71713250  0.46157160     0.01060
C991        C  0.90827641  0.89365088  0.96865362     0.03620
C992        C  0.86775836  0.90389610  0.45085245    -0.12530
C993        C  0.83050288  0.87086662  0.45792251     0.01120
C994        C  0.83332682  0.82223560  0.47604160    -0.11050
C995        C  0.87322288  0.80795398  0.99235489     0.03620
C996        C  0.91126069  0.84479517  0.99064087    -0.10470
H997        H  0.86476657  0.94051906  0.43369228     0.09210
H998        H  0.80447228  0.79443961  0.47337881     0.06740
H999        H  0.94214448  0.83577018  0.00607436     0.06590
C1000       C  0.83711998  0.57118043  0.46899149     0.03620
C1001       C  0.84049342  0.62725770  0.47723623    -0.12530
C1002       C  0.87677454  0.65748380  0.45631514     0.01120
C1003       C  0.90642125  0.62880603  0.92668290    -0.11050
C1004       C  0.91045826  0.57856136  0.93984144     0.03620
C1005       C  0.87227125  0.54753940  0.94703307    -0.10470
H1006       H  0.81527401  0.64583196  0.49808274     0.09210
H1007       H  0.93502485  0.64855068  0.91030703     0.06740
H1008       H  0.87303043  0.50573840  0.94699160     0.06590
O1009       O  0.53866351  0.63898483  0.05187030    -0.73930
O1010       O  0.92927863  0.61988336  0.10373110    -0.73960
O1011       O  0.50853083  0.63462080  0.15090938    -0.74020
O1012       O  0.96143222  0.62338515  0.00586502    -0.74070
O1013       O  0.94780734  0.53710566  0.00785335    -0.74000
O1014       O  0.52301588  0.55175157  0.13766435    -0.73980
O1015       O  0.93648353  0.53794030  0.12015057    -0.73950
O1016       O  0.53488465  0.55220279  0.02917099    -0.74020
Ni1017     Ni  0.98422983  0.63222782  0.07853299     1.25410
Ni1018     Ni  0.98524855  0.54017866  0.07295735     1.25360
C1019       C  0.55348086  0.59910530  0.02830157     0.88250
C1020       C  0.91894796  0.58029137  0.12960341     0.88180
C1021       C  0.52954470  0.59778226  0.16418873     0.88210
C1022       C  0.94318046  0.57862962  0.98464971     0.88380
C1023       C  0.83113593  0.57337393  0.23293574     0.03620
C1024       C  0.86109577  0.55580076  0.19479181    -0.12530
C1025       C  0.89259310  0.59123008  0.17645085     0.01120
C1026       C  0.89880684  0.64267481  0.20088125    -0.11050
C1027       C  0.86994769  0.66216111  0.23671699     0.03620
C1028       C  0.83547697  0.62755368  0.25429511    -0.10470
H1029       H  0.86034116  0.51478488  0.17954226     0.09210
H1030       H  0.92621247  0.66938080  0.18993740     0.06740
H1031       H  0.81345339  0.64196125  0.28444368     0.06590
C1032       C  0.91559499  0.90112222  0.21480051     0.03620
C1033       C  0.91280170  0.84640728  0.19868638    -0.12530
C1034       C  0.89346840  0.81090593  0.23414215     0.01120
C1035       C  0.87765489  0.83113982  0.28403696    -0.11050
C1036       C  0.87126847  0.88345368  0.29197066     0.03620
C1037       C  0.89684620  0.91904027  0.26460086    -0.10470
H1038       H  0.92165779  0.83241330  0.15732766     0.09210
H1039       H  0.85911026  0.80467292  0.30879962     0.06740
H1040       H  0.89220810  0.96003911  0.27291423     0.06590
C1041       C  0.88102121  0.71866365  0.25493485     0.01060
C1042       C  0.87832248  0.75456569  0.21602309     0.01060
O1043       O  0.72437036  0.86881783  0.26409887    -0.73930
O1044       O  0.76798477  0.84415995  0.40302966    -0.73960
O1045       O  0.69116700  0.86165770  0.36374129    -0.74020
O1046       O  0.79966052  0.85249185  0.30566672    -0.74070
O1047       O  0.81712039  0.93909280  0.32178772    -0.74000
O1048       O  0.70953221  0.94656220  0.39364849    -0.73980
O1049       O  0.78902572  0.93024951  0.42229413    -0.73950
O1050       O  0.73364881  0.95541119  0.28724284    -0.74020
Ni1051     Ni  0.74483119  0.85407342  0.33301921     1.25410
Ni1052     Ni  0.76275312  0.94667604  0.35628956     1.25360
C1053       C  0.71743112  0.91490168  0.25469439     0.88250
C1054       C  0.79171387  0.88240194  0.43022528     0.88180
C1055       C  0.68566923  0.90296137  0.39529141     0.88210
C1056       C  0.82753861  0.89306781  0.30770052     0.88380
C1057       C  0.80157546  0.53158691  0.25473625    -0.04970
C1058       C  0.78466925  0.48842346  0.21671707    -0.32400
C1059       C  0.79289342  0.43757021  0.22588450     0.36850
C1060       C  0.81411527  0.43022507  0.27606942    -0.05330
C1061       C  0.81655569  0.47109078  0.32002139    -0.32300
C1062       C  0.81012500  0.52201023  0.30943516     0.36760
H1063       H  0.77366107  0.49547969  0.17586753     0.17130
O1064       O  0.78592549  0.39787385  0.18305453    -0.59800
H1065       H  0.83077993  0.46553700  0.35993015     0.17140
O1066       O  0.82185371  0.56323201  0.34929872    -0.59890
H1067       H  0.79426315  0.57565602  0.36117386     0.44140
H1068       H  0.81328232  0.39910854  0.16291573     0.44090
C1069       C  0.91542408  0.93816351  0.17267145    -0.04970
C1070       C  0.87279464  0.93972534  0.15423722    -0.32400
C1071       C  0.85275827  0.98444694  0.17010658     0.36850
C1072       C  0.87747572  0.02988056  0.19823284    -0.05330
C1073       C  0.92279281  0.03235796  0.19930972    -0.32300
C1074       C  0.94194985  0.98652096  0.18389259     0.36760
H1075       H  0.85243907  0.90339178  0.14005254     0.17130
O1076       O  0.80867507  0.98168180  0.16245285    -0.59800
H1077       H  0.94287343  0.06748597  0.21751892     0.17140
O1078       O  0.98581431  0.98738456  0.18937277    -0.59890
H1079       H  0.99694335  0.99790978  0.15369746     0.44140
H1080       H  0.80188441  0.96873124  0.12273743     0.44090
C1081       C  0.68387255  0.45773636  0.24934009    -0.04970
C1082       C  0.70154153  0.50146454  0.28657260    -0.32400
C1083       C  0.69541570  0.55274930  0.27562019     0.36850
C1084       C  0.67292195  0.55973452  0.22634744    -0.05330
C1085       C  0.66825780  0.51799900  0.18353057    -0.32300
C1086       C  0.67272424  0.46685094  0.19515979     0.36760
H1087       H  0.71308414  0.49524710  0.32769555     0.17130
O1088       O  0.70529362  0.59380121  0.31642406    -0.59800
H1089       H  0.65333820  0.52333377  0.14389601     0.17140
O1090       O  0.65737327  0.42560010  0.15686787    -0.59890
H1091       H  0.62623397  0.41841494  0.16438497     0.44140
H1092       H  0.73393329  0.61103445  0.30710951     0.44090
C1093       C  0.56099518  0.04679663  0.32290511    -0.04970
C1094       C  0.53158362  0.00170924  0.30605231    -0.32400
C1095       C  0.54744404  0.95319023  0.29397008     0.36850
C1096       C  0.59172349  0.95045173  0.30414830    -0.05330
C1097       C  0.61555573  0.99126655  0.33936581    -0.32300
C1098       C  0.59995580  0.03978639  0.35010240     0.36760
H1099       H  0.49930589  0.00624462  0.29137050     0.17130
O1100       O  0.52144036  0.91190025  0.26528051    -0.59800
H1101       H  0.64928020  0.98920836  0.34940617     0.17140
O1102       O  0.62813956  0.08306821  0.37062679    -0.59890
H1103       H  0.64268177  0.07344998  0.40432840     0.44140
H1104       H  0.52789045  0.91358237  0.22554096     0.44090
C1105       C  0.79816827  0.43365568  0.02871375    -0.04970
C1106       C  0.80663419  0.47902920  0.06718919    -0.32400
C1107       C  0.80962054  0.52945321  0.04957768     0.36850
C1108       C  0.80409557  0.53469311  0.49293320    -0.05330
C1109       C  0.78453728  0.49061707  0.45793436    -0.32300
C1110       C  0.78220153  0.43991638  0.47522139     0.36760
H1111       H  0.81933829  0.47493793  0.10804560     0.17130
O1112       O  0.82504986  0.57239298  0.08576730    -0.59800
H1113       H  0.77654450  0.49469572  0.41509027     0.17140
O1114       O  0.77089447  0.39685214  0.43710713    -0.59890
H1115       H  0.79764509  0.39104410  0.41722254     0.44140
H1116       H  0.79938779  0.58323141  0.10513994     0.44090
C1117       C  0.94016319  0.94223227  0.97913798    -0.04970
C1118       C  0.93871784  0.96417329  0.03369720    -0.32400
C1119       C  0.91303439  0.00486911  0.04123126     0.36850
C1120       C  0.91488677  0.04465624  0.50490034    -0.05330
C1121       C  0.93188719  0.03101616  0.45265946    -0.32300
C1122       C  0.94263179  0.97882769  0.43867724     0.36760
H1123       H  0.93700011  0.93704600  0.06506480     0.17130
O1124       O  0.87444075  0.99143399  0.06448679    -0.59800
H1125       H  0.93186269  0.05749742  0.42077918     0.17140
O1126       O  0.95022402  0.96181518  0.38464590    -0.59890
H1127       H  0.92519231  0.96983633  0.36246125     0.44140
H1128       H  0.85284375  0.97986079  0.03343536     0.44090
C1129       C  0.68438500  0.45890472  0.00328945    -0.04970
C1130       C  0.67594490  0.47371620  0.45047880    -0.32400
C1131       C  0.68136416  0.52720683  0.44129716     0.36850
C1132       C  0.69578981  0.56641836  0.48522991    -0.05330
C1133       C  0.71298098  0.55021750  0.03355517    -0.32300
C1134       C  0.70765931  0.49690464  0.04273585     0.36760
H1135       H  0.65767898  0.44550558  0.41995188     0.17130
O1136       O  0.66185737  0.54170419  0.39487663    -0.59800
H1137       H  0.72367745  0.57935685  0.06826197     0.17140
O1138       O  0.71849348  0.48428891  0.09453326    -0.59890
H1139       H  0.72478027  0.44726830  0.09043035     0.44140
H1140       H  0.63061306  0.54014242  0.40251368     0.44090
C1141       C  0.55051016  0.05031202  0.51888424    -0.04970
C1142       C  0.55621078  0.02494431  0.56716020    -0.32400
C1143       C  0.56377970  0.97181131  0.56232229     0.36850
C1144       C  0.56176510  0.94325149  0.00930350    -0.05330
C1145       C  0.54235169  0.96503893  0.96511304    -0.32300
C1146       C  0.53620130  0.01847778  0.97017573     0.36760
H1147       H  0.56528147  0.04867553  0.60614297     0.17130
O1148       O  0.58140534  0.95228280  0.60716457    -0.59800
H1149       H  0.53876465  0.94320519  0.92412105     0.17140
O1150       O  0.52558013  0.04078786  0.92349398    -0.59890
H1151       H  0.51234083  0.07307034  0.93544808     0.44140
H1152       H  0.55668969  0.93240475  0.62374338     0.44090
C1153       C  0.70571504  0.25163446  0.88457457     0.03620
C1154       C  0.68293736  0.25862531  0.93514426    -0.12530
C1155       C  0.63669401  0.25513760  0.93710902     0.01120
C1156       C  0.61296882  0.24848740  0.88543186    -0.11050
C1157       C  0.63344067  0.24395723  0.83358161     0.03620
C1158       C  0.67942928  0.24500947  0.83413201    -0.10470
H1159       H  0.70104473  0.26593983  0.97422604     0.09210
H1160       H  0.57797046  0.24414983  0.88556843     0.06740
H1161       H  0.69402467  0.23865891  0.79441559     0.06590
C1162       C  0.75584094  0.24815228  0.88511982     0.03620
C1163       C  0.77940030  0.24116975  0.93521082    -0.12530
C1164       C  0.82429318  0.23481530  0.93667885     0.01120
C1165       C  0.84634008  0.23460948  0.88659205    -0.11050
C1166       C  0.82511326  0.23869425  0.83510698     0.03620
C1167       C  0.78031159  0.24694478  0.83533363    -0.10470
H1168       H  0.76282625  0.23754895  0.97344096     0.09210
H1169       H  0.87943036  0.22552375  0.88668772     0.06740
H1170       H  0.76428773  0.24827446  0.79551132     0.06590
C1171       C  0.50520364  0.23950016  0.63399953     0.03620
C1172       C  0.52912895  0.24300193  0.58350564    -0.12530
C1173       C  0.57569994  0.25424648  0.58377717     0.01120
C1174       C  0.59824342  0.26235063  0.63574188    -0.11050
C1175       C  0.57720830  0.25909261  0.68616322     0.03620
C1176       C  0.53125661  0.24744014  0.68479086    -0.10470
H1177       H  0.51205138  0.24035905  0.54374651     0.09210
H1178       H  0.63297852  0.27325512  0.63709404     0.06740
H1179       H  0.51646819  0.24625704  0.72446489     0.06590
C1180       C  0.95400318  0.23208481  0.63483108     0.03620
C1181       C  0.92738920  0.23139285  0.58543760    -0.12530
C1182       C  0.88195828  0.23567542  0.58667710     0.01120
C1183       C  0.86190074  0.23591406  0.63821408    -0.11050
C1184       C  0.88479799  0.23135837  0.68815067     0.03620
C1185       C  0.93076498  0.22988343  0.68561759    -0.10470
H1186       H  0.94205280  0.23196565  0.54558201     0.09210
H1187       H  0.82835996  0.24311071  0.63993639     0.06740
H1188       H  0.94809445  0.22873526  0.72445273     0.06590
C1189       C  0.58400426  0.09474735  0.01080427     0.03620
C1190       C  0.57735543  0.14667364  0.00107160    -0.12530
C1191       C  0.61409704  0.18508094  0.99981375     0.01120
C1192       C  0.65490654  0.17183862  0.51368569    -0.11050
C1193       C  0.66073234  0.12084301  0.52224987     0.03620
C1194       C  0.62614358  0.08177768  0.51301316    -0.10470
H1195       H  0.54497525  0.15699850  0.99548775     0.09210
H1196       H  0.68161560  0.20238441  0.52374806     0.06740
H1197       H  0.63121841  0.04151903  0.51763500     0.06590
C1198       C  0.61305262  0.24103605  0.99017897     0.01060
C1199       C  0.60065658  0.27492406  0.53415886     0.01060
C1200       C  0.65129906  0.42068764  0.52541549     0.03620
C1201       C  0.61812077  0.44425238  0.05214425    -0.12530
C1202       C  0.58073264  0.41372383  0.06239852     0.01120
C1203       C  0.58574063  0.36378443  0.07522045    -0.11050
C1204       C  0.61247117  0.33444253  0.54103757     0.03620
C1205       C  0.64751783  0.36457593  0.51670909    -0.10470
H1206       H  0.61682438  0.48545020  0.05242911     0.09210
H1207       H  0.55848892  0.34492267  0.09523305     0.06740
H1208       H  0.67147721  0.34626765  0.49320747     0.06590
C1209       C  0.84683064  0.21882830  0.98812121     0.01060
C1210       C  0.85712390  0.25237924  0.53681475     0.01060
C1211       C  0.88917587  0.09112471  0.01776655     0.03620
C1212       C  0.88231332  0.13138217  0.98281362    -0.12530
C1213       C  0.84675656  0.16135984  0.99322060     0.01120
C1214       C  0.81579075  0.14331722  0.52914554    -0.11050
C1215       C  0.82739847  0.11242235  0.56921791     0.03620
C1216       C  0.86658697  0.09282726  0.56753339    -0.10470
H1217       H  0.90447163  0.14047345  0.95053458     0.09210
H1218       H  0.78646292  0.16209777  0.53367096     0.06740
H1219       H  0.87708577  0.07531923  0.60325654     0.06590
C1220       C  0.82967257  0.39544491  0.53269076     0.03620
C1221       C  0.82118252  0.33994706  0.53533494    -0.12530
C1222       C  0.85720652  0.31055344  0.53845842     0.01120
C1223       C  0.89838849  0.33763022  0.04114047    -0.11050
C1224       C  0.90499433  0.38740943  0.02489400     0.03620
C1225       C  0.87208150  0.41779369  0.02588502    -0.10630
H1226       H  0.78833791  0.32087265  0.53538679     0.09210
H1227       H  0.92629330  0.31666046  0.04310408     0.06740
H1228       H  0.87896451  0.45791166  0.01647307     0.06590
O1229       O  0.74392432  0.04252931  0.71329822    -0.73930
O1230       O  0.69655754  0.06531236  0.57322834    -0.73960
O1231       O  0.77553187  0.05815789  0.61186000    -0.74020
O1232       O  0.66239625  0.05154104  0.67067572    -0.74070
O1233       O  0.67557859  0.13837508  0.69108581    -0.74000
O1234       O  0.78726484  0.14397556  0.64083143    -0.73980
O1235       O  0.71039853  0.15206153  0.59584740    -0.73950
O1236       O  0.75126906  0.12901288  0.73778716    -0.74020
Ni1237     Ni  0.71939901  0.05074241  0.64202115     1.25410
Ni1238     Ni  0.73163940  0.14362617  0.66768101     1.25360
C1239       C  0.75856731  0.08282176  0.74693918     0.88250
C1240       C  0.69319858  0.11241385  0.56331992     0.88180
C1241       C  0.79740773  0.10341897  0.61223256     0.88210
C1242       C  0.64953631  0.09600811  0.68608618     0.88380
C1243       C  0.56641936  0.08576893  0.78293596     0.03620
C1244       C  0.58348569  0.06688359  0.73250369    -0.12530
C1245       C  0.60508742  0.10212243  0.70103613     0.01120
C1246       C  0.59666140  0.15385661  0.70823992    -0.11050
C1247       C  0.58780929  0.17570072  0.76135629     0.03620
C1248       C  0.57117829  0.14069767  0.79925793    -0.10470
H1249       H  0.58837188  0.02590816  0.72439622     0.09210
H1250       H  0.61223837  0.17865147  0.67969530     0.06740
H1251       H  0.56492613  0.15506217  0.84152652     0.06590
C1252       C  0.65741064  0.41346771  0.77196513     0.03620
C1253       C  0.65195788  0.36018266  0.74679710    -0.12530
C1254       C  0.61663661  0.32507786  0.76176964     0.01120
C1255       C  0.58838241  0.34323318  0.79950455    -0.11050
C1256       C  0.59576173  0.39322773  0.82741793     0.03620
C1257       C  0.62853528  0.42883294  0.81236338    -0.10470
H1258       H  0.67325272  0.34727271  0.71490750     0.09210
H1259       H  0.56028862  0.31667118  0.80863799     0.06740
H1260       H  0.62977645  0.46904900  0.83004218     0.06590
C1261       C  0.60640199  0.23186680  0.77830453     0.01060
C1262       C  0.60470672  0.26906377  0.74053271     0.01060
C1263       C  0.84538757  0.21498147  0.78203744     0.01060
C1264       C  0.86311557  0.24679648  0.74291314     0.01060
C1265       C  0.85610957  0.06748134  0.73582672     0.03620
C1266       C  0.82216183  0.04615152  0.76695671    -0.12530
C1267       C  0.79330681  0.07890338  0.78844190     0.01120
C1268       C  0.81280247  0.12793284  0.81078177    -0.11050
C1269       C  0.84315370  0.15529194  0.77770904     0.03620
C1270       C  0.86632213  0.12314581  0.74034280    -0.10470
H1271       H  0.81152688  0.00467788  0.76136502     0.09210
H1272       H  0.79346573  0.14805029  0.84028202     0.06740
H1273       H  0.89123421  0.13970573  0.71520851     0.06590
C1274       C  0.84593847  0.39132371  0.77750012     0.03620
C1275       C  0.83654090  0.33747219  0.75719135    -0.12530
C1276       C  0.86943304  0.30421920  0.75882714     0.01120
C1277       C  0.91037486  0.32450299  0.78019968    -0.11050
C1278       C  0.91938822  0.37652463  0.80279405     0.03620
C1279       C  0.88803439  0.41026875  0.79899427    -0.10470
H1280       H  0.80434498  0.32155207  0.74128837     0.09210
H1281       H  0.93437709  0.29788764  0.78416433     0.06740
H1282       H  0.89598783  0.45106963  0.81559869     0.06590
O1283       O  0.95729745  0.44173903  0.98015022    -0.73930
O1284       O  0.55140020  0.44702982  0.88177621    -0.73960
O1285       O  0.96417188  0.43622737  0.86856249    -0.74020
O1286       O  0.54315889  0.45380032  0.99423290    -0.74070
O1287       O  0.52912575  0.36767594  0.99864140    -0.74000
O1288       O  0.97416506  0.35161004  0.85832993    -0.73980
O1289       O  0.55541981  0.36381264  0.89693285    -0.73950
O1290       O  0.95033215  0.35473581  0.96122011    -0.74020
Ni1291     Ni  0.00421035  0.44902155  0.93126977     1.25410
Ni1292     Ni  0.00236540  0.35653544  0.92841437     1.25360
C1293       C  0.93926289  0.39598701  0.98730595     0.88250
C1294       C  0.56766729  0.40371954  0.87234369     0.88180
C1295       C  0.95559508  0.38971737  0.84340758     0.88210
C1296       C  0.54772188  0.41276447  0.01829871     0.88380
C1297       C  0.72927164  0.74561789  0.61034451     0.03620
C1298       C  0.70508658  0.74776646  0.66051624    -0.12530
C1299       C  0.66022268  0.75590232  0.66095402     0.01120
C1300       C  0.63879840  0.75989934  0.60971319    -0.11050
C1301       C  0.66051791  0.75930952  0.55952966     0.03620
C1302       C  0.70540466  0.75271621  0.56052661    -0.10470
H1303       H  0.72119282  0.74649276  0.70028605     0.09210
H1304       H  0.60551521  0.76829153  0.60969982     0.06740
H1305       H  0.72157701  0.75555919  0.52193049     0.06590
C1306       C  0.77928873  0.74045842  0.61003953     0.03620
C1307       C  0.80216898  0.73536624  0.55917186    -0.12530
C1308       C  0.84841097  0.73783756  0.55714608     0.01120
C1309       C  0.87189850  0.74074178  0.60876907    -0.11050
C1310       C  0.85129080  0.74265969  0.66070290     0.03620
C1311       C  0.80543603  0.74331140  0.66029410    -0.10470
H1312       H  0.78417837  0.72989209  0.52004291     0.09210
H1313       H  0.90688525  0.74441741  0.60874349     0.06740
H1314       H  0.79089868  0.74823008  0.70019373     0.06590
C1315       C  0.53179328  0.75539861  0.86070775     0.03620
C1316       C  0.55524250  0.75830870  0.81036107    -0.12530
C1317       C  0.60142781  0.75829480  0.80831468     0.01120
C1318       C  0.62430554  0.75421193  0.85826602    -0.11050
C1319       C  0.60367756  0.75196294  0.90910254     0.03620
C1320       C  0.55799676  0.75407438  0.91003304    -0.10470
H1321       H  0.53796363  0.76000157  0.77160445     0.09210
H1322       H  0.65839603  0.74948365  0.85702344     0.06740
H1323       H  0.54312637  0.75155617  0.94955553     0.06590
C1324       C  0.98074963  0.74977140  0.86108450     0.03620
C1325       C  0.95700120  0.74825420  0.91160852    -0.12530
C1326       C  0.91061481  0.73713143  0.91148157     0.01120
C1327       C  0.88773027  0.72884478  0.85983079    -0.11050
C1328       C  0.90854106  0.73140627  0.80922350     0.03620
C1329       C  0.95461581  0.74177175  0.81029119    -0.10470
H1330       H  0.97404064  0.75185246  0.95147298     0.09210
H1331       H  0.85300561  0.71792714  0.85889697     0.06740
H1332       H  0.96943416  0.74135864  0.77052115     0.06590
C1333       C  0.61633025  0.91908499  0.76415930     0.03620
C1334       C  0.60945997  0.86366341  0.75504648    -0.12530
C1335       C  0.63628444  0.83619251  0.71862384     0.01120
C1336       C  0.66572449  0.86788383  0.68840171    -0.11050
C1337       C  0.68182194  0.91760489  0.71418788     0.03620
C1338       C  0.65080852  0.94613705  0.73807658    -0.10470
H1339       H  0.58398786  0.84391233  0.77655199     0.09210
H1340       H  0.68748365  0.85021149  0.66016838     0.06740
H1341       H  0.65928592  0.98801464  0.74875231     0.06590
C1342       C  0.63887273  0.77722840  0.71412456     0.01060
C1343       C  0.62395605  0.74440971  0.75383774     0.01060
C1344       C  0.64118952  0.59891553  0.72564484     0.03620
C1345       C  0.65149981  0.65360836  0.74172883    -0.12530
C1346       C  0.61877710  0.68695659  0.73824177     0.01120
C1347       C  0.57742021  0.66599572  0.71936403    -0.11050
C1348       C  0.56700574  0.61291530  0.70244471     0.03620
C1349       C  0.59821373  0.57925656  0.70791714    -0.10470
H1350       H  0.68403953  0.66991020  0.75581575     0.09210
H1351       H  0.55378027  0.69264502  0.71355985     0.06740
H1352       H  0.58947029  0.53773069  0.69501394     0.06590
C1353       C  0.66803761  0.60936766  0.99296076     0.03620
C1354       C  0.67105824  0.65697613  0.96737884    -0.12530
C1355       C  0.63263050  0.68153754  0.96149494     0.01120
C1356       C  0.59336732  0.65228728  0.46835590    -0.11050
C1357       C  0.59191870  0.61038243  0.49959570     0.03620
C1358       C  0.62937657  0.59298560  0.51697764    -0.10470
H1359       H  0.70174470  0.67446406  0.95381286     0.09210
H1360       H  0.56345824  0.66803495  0.45984769     0.06740
H1361       H  0.62810569  0.56469684  0.54652509     0.06590
C1362       C  0.59496964  0.90688092  0.49480526     0.03620
C1363       C  0.62566511  0.92440648  0.95712920    -0.12530
C1364       C  0.65837473  0.89471136  0.94185806     0.01120
C1365       C  0.66471932  0.85122909  0.96874268    -0.11050
C1366       C  0.63373554  0.82949241  0.50205948     0.03620
C1367       C  0.59817758  0.85782305  0.51652419    -0.10470
H1368       H  0.62381026  0.96074687  0.93920971     0.09210
H1369       H  0.69171197  0.82956712  0.95772876     0.06740
H1370       H  0.57327980  0.84163446  0.54239325     0.06590
C1371       C  0.63696467  0.77280159  0.50758633     0.01060
C1372       C  0.62939625  0.73845460  0.95938378     0.01060
C1373       C  0.87270348  0.75180250  0.50418054     0.01060
C1374       C  0.88633671  0.71726983  0.96159873     0.01060
C1375       C  0.90829345  0.89339387  0.46837305     0.03620
C1376       C  0.86770598  0.90427094  0.95141250    -0.12530
C1377       C  0.83047337  0.87113469  0.95827969     0.01120
C1378       C  0.83333526  0.82242574  0.97620053    -0.11050
C1379       C  0.87320405  0.80779477  0.49227739     0.03620
C1380       C  0.91124186  0.84462476  0.49055648    -0.10470
H1381       H  0.86468904  0.94099547  0.93448130     0.09210
H1382       H  0.80449961  0.79459431  0.97343516     0.06740
H1383       H  0.94209867  0.83566608  0.50615462     0.06590
C1384       C  0.83717243  0.57129799  0.96903029     0.03620
C1385       C  0.84052634  0.62737600  0.97725675    -0.12530
C1386       C  0.87681976  0.65761652  0.95637433     0.01120
C1387       C  0.90633281  0.62865718  0.42655231    -0.11050
C1388       C  0.91038898  0.57842607  0.43973170     0.03620
C1389       C  0.87220294  0.54740985  0.44695467    -0.10470
H1390       H  0.81528214  0.64594077  0.99805761     0.09210
H1391       H  0.93491736  0.64838349  0.41011427     0.06740
H1392       H  0.87295505  0.50560587  0.44689338     0.06590
O1393       O  0.53860710  0.63893175  0.55173825    -0.73930
O1394       O  0.92921600  0.61994305  0.60361684    -0.73960
O1395       O  0.50847228  0.63469757  0.65078764    -0.74020
O1396       O  0.96136717  0.62331539  0.50572585    -0.74070
O1397       O  0.94774936  0.53704751  0.50779736    -0.74000
O1398       O  0.52288676  0.55179194  0.63766850    -0.73980
O1399       O  0.93637666  0.53799744  0.62007833    -0.73950
O1400       O  0.53483121  0.55212931  0.52919317    -0.74020
Ni1401     Ni  0.98416931  0.63223137  0.57839829     1.25410
Ni1402     Ni  0.98516175  0.54017634  0.57293310     1.25360
C1403       C  0.55344524  0.59901710  0.52828380     0.88250
C1404       C  0.91886341  0.58036596  0.62950540     0.88180
C1405       C  0.52944056  0.59784455  0.66413887     0.88210
C1406       C  0.94311663  0.57854403  0.48455065     0.88380
C1407       C  0.83114482  0.57344471  0.73297367     0.03620
C1408       C  0.86105812  0.55588864  0.69475530    -0.12530
C1409       C  0.89251576  0.59132846  0.67635143     0.01120
C1410       C  0.89874621  0.64277063  0.70078165    -0.11050
C1411       C  0.86994722  0.66223836  0.73672072     0.03620
C1412       C  0.83550819  0.62762059  0.75435814    -0.10470
H1413       H  0.86030422  0.51487438  0.67950046     0.09210
H1414       H  0.92612924  0.66948290  0.68978718     0.06740
H1415       H  0.81352574  0.64201891  0.78456743     0.06590
C1416       C  0.91557585  0.90120072  0.71476854     0.03620
C1417       C  0.91279455  0.84648328  0.69866513    -0.12530
C1418       C  0.89345641  0.81098229  0.73411954     0.01120
C1419       C  0.87762082  0.83121347  0.78399802    -0.11050
C1420       C  0.87123090  0.88352675  0.79194037     0.03620
C1421       C  0.89677166  0.91911739  0.76452758    -0.10470
H1422       H  0.92167963  0.83248132  0.65732149     0.09210
H1423       H  0.85909418  0.80473767  0.80876760     0.06740
H1424       H  0.89212391  0.96011307  0.77282896     0.06590
C1425       C  0.88103178  0.71874118  0.75494117     0.01060
C1426       C  0.87833308  0.75463355  0.71601701     0.01060
O1427       O  0.72438591  0.86885689  0.76429601    -0.73930
O1428       O  0.76799621  0.84437469  0.90329676    -0.73960
O1429       O  0.69118382  0.86182108  0.86394224    -0.74020
O1430       O  0.79967272  0.85257900  0.80591123    -0.74070
O1431       O  0.81712599  0.93919033  0.82187643    -0.74000
O1432       O  0.70955617  0.94673993  0.89377571    -0.73980
O1433       O  0.78904596  0.93047081  0.92243675    -0.73950
O1434       O  0.73366079  0.95546626  0.78733173    -0.74020
Ni1435     Ni  0.74484676  0.85419886  0.83325270     1.25410
Ni1436     Ni  0.76276947  0.94681404  0.85639891     1.25360
C1437       C  0.71745888  0.91492600  0.75481759     0.88250
C1438       C  0.79171573  0.88264245  0.93046655     0.88180
C1439       C  0.68569491  0.90314417  0.89546252     0.88210
C1440       C  0.82753820  0.89315484  0.80782388     0.88380
C1441       C  0.80163255  0.53164078  0.75482906    -0.04970
C1442       C  0.78472430  0.48844645  0.71684822    -0.32400
C1443       C  0.79300817  0.43761621  0.72602412     0.36850
C1444       C  0.81428317  0.43031722  0.77619125    -0.05330
C1445       C  0.81673187  0.47120351  0.82012307    -0.32300
C1446       C  0.81023752  0.52209970  0.80952460     0.36760
H1447       H  0.77366756  0.49546852  0.67600613     0.17130
O1448       O  0.78603098  0.39790137  0.68321436    -0.59800
H1449       H  0.83097407  0.46568169  0.86003146     0.17140
O1450       O  0.82195694  0.56334595  0.84936222    -0.59890
H1451       H  0.79436368  0.57578355  0.86120699     0.44140
H1452       H  0.81337263  0.39914933  0.66304220     0.44090
C1453       C  0.91550897  0.93826047  0.67264045    -0.04970
C1454       C  0.87291819  0.93986517  0.65408927    -0.32400
C1455       C  0.85286988  0.98457437  0.66997185     0.36850
C1456       C  0.87756331  0.02997308  0.69819321    -0.05330
C1457       C  0.92288113  0.03244378  0.69934573    -0.32300
C1458       C  0.94203967  0.98660659  0.68393136     0.36760
H1459       H  0.85256746  0.90354319  0.63984493     0.17130
O1460       O  0.80878058  0.98178739  0.66234741    -0.59800
H1461       H  0.94295178  0.06755645  0.71761358     0.17140
O1462       O  0.98589993  0.98745770  0.68945242    -0.59890
H1463       H  0.99703938  0.99781356  0.65371814     0.44140
H1464       H  0.80195000  0.96871859  0.62266975     0.44090
C1465       C  0.68372206  0.45768458  0.74911772    -0.04970
C1466       C  0.70147301  0.50140672  0.78630256    -0.32400
C1467       C  0.69535288  0.55269717  0.77536956     0.36850
C1468       C  0.67278690  0.55969365  0.72615432    -0.05330
C1469       C  0.66803327  0.51794907  0.68334383    -0.32300
C1470       C  0.67245508  0.46679290  0.69497611     0.36760
H1471       H  0.71308448  0.49518917  0.82739514     0.17130
O1472       O  0.70530919  0.59374846  0.81615590    -0.59800
H1473       H  0.65306569  0.52328530  0.64373640     0.17140
O1474       O  0.65696518  0.42554868  0.65674934    -0.59890
H1475       H  0.62583392  0.41846664  0.66435975     0.44140
H1476       H  0.73396783  0.61090765  0.80681509     0.44090
C1477       C  0.56096093  0.04672085  0.82295043    -0.04970
C1478       C  0.53155859  0.00162122  0.80610980    -0.32400
C1479       C  0.54744126  0.95312258  0.79396982     0.36850
C1480       C  0.59173022  0.95041290  0.80411069    -0.05330
C1481       C  0.61555381  0.99122038  0.83934708    -0.32300
C1482       C  0.59993128  0.03972080  0.85012859     0.36760
H1483       H  0.49926658  0.00614049  0.79146869     0.17130
O1484       O  0.52144421  0.91183206  0.76527099    -0.59800
H1485       H  0.64928238  0.98917945  0.84937423     0.17140
O1486       O  0.62809968  0.08300645  0.87067841    -0.59890
H1487       H  0.64261301  0.07338909  0.90440114     0.44140
H1488       H  0.52787996  0.91353880  0.72553047     0.44090
C1489       C  0.79810954  0.43358560  0.52876077    -0.04970
C1490       C  0.80657554  0.47897486  0.56721417    -0.32400
C1491       C  0.80956758  0.52938547  0.54956812     0.36850
C1492       C  0.80414662  0.53479288  0.99294924    -0.05330
C1493       C  0.78459280  0.49072724  0.95792686    -0.32300
C1494       C  0.78225947  0.44001360  0.97518372     0.36760
H1495       H  0.81927033  0.47490400  0.60808105     0.17130
O1496       O  0.82498606  0.57234550  0.58573433    -0.59800
H1497       H  0.77660283  0.49482471  0.91508635     0.17140
O1498       O  0.77095378  0.39696582  0.93704813    -0.59890
H1499       H  0.79770875  0.39115734  0.91717380     0.44140
H1500       H  0.79932961  0.58314723  0.60514716     0.44090
C1501       C  0.94003226  0.94207626  0.47914238    -0.04970
C1502       C  0.93825537  0.96389993  0.53369479    -0.32400
C1503       C  0.91249268  0.00452524  0.54103504     0.36850
C1504       C  0.91515485  0.04488072  0.00495177    -0.05330
C1505       C  0.93191588  0.03112094  0.95258892    -0.32300
C1506       C  0.94262253  0.97891889  0.93860963     0.36760
H1507       H  0.93637485  0.93670371  0.56498973     0.17130
O1508       O  0.87370684  0.99100247  0.56383729    -0.59800
H1509       H  0.93171973  0.05751327  0.92063927     0.17140
O1510       O  0.94997958  0.96182339  0.88453260    -0.59890
H1511       H  0.92470069  0.96950706  0.86258794     0.44140
H1512       H  0.85229409  0.97960881  0.53254263     0.44090
C1513       C  0.68442291  0.45877696  0.50334297    -0.04970
C1514       C  0.67587507  0.47374612  0.95039116    -0.32400
C1515       C  0.68134471  0.52720669  0.94107525     0.36850
C1516       C  0.69580059  0.56649132  0.98492577    -0.05330
C1517       C  0.71293995  0.55006239  0.53383313    -0.32300
C1518       C  0.70765255  0.49671831  0.54288445     0.36760
H1519       H  0.65758163  0.44549489  0.91993231     0.17130
O1520       O  0.66184210  0.54163639  0.89461742    -0.59800
H1521       H  0.72359341  0.57914535  0.56860563     0.17140
O1522       O  0.71845726  0.48400219  0.59465269    -0.59890
H1523       H  0.72472245  0.44697316  0.59049113     0.44140
H1524       H  0.63060370  0.54014520  0.90227023     0.44090
C1525       C  0.55046433  0.05041257  0.01894366    -0.04970
C1526       C  0.55613169  0.02503226  0.06721766    -0.32400
C1527       C  0.56369591  0.97189818  0.06237474     0.36850
C1528       C  0.56181193  0.94314646  0.50925883    -0.05330
C1529       C  0.54236682  0.96492015  0.46508198    -0.32300
C1530       C  0.53622654  0.01836286  0.47013259     0.36760
H1531       H  0.56517993  0.04875343  0.10621320     0.17130
O1532       O  0.58128652  0.95235294  0.10722938    -0.59800
H1533       H  0.53875548  0.94307376  0.42409711     0.17140
O1534       O  0.52559363  0.04065923  0.42344704    -0.59890
H1535       H  0.51234847  0.07293765  0.43539941     0.44140
H1536       H  0.55656448  0.93241107  0.12372917     0.44090
loop_ 
_geom_bond_atom_site_label_1 
_geom_bond_atom_site_label_2 
_geom_bond_distance 
_geom_bond_site_symmetry_2 
_ccdc_geom_bond_type 
C1            C2   1.436       .  A
C1            C6   1.435       .  A
C1           C10   1.575       .  S
C2            C3   1.435       .  A
C2            H7   1.075       .  S
C3            C4   1.419       .  A
C3           C46   1.552       .  S
C4            C5   1.422       .  A
C4            H8   1.083       .  S
C5            C6   1.430       .  A
C5          C109   1.544       .  S
C6            H9   1.079       .  S
C10          C11   1.438       .  A
C10          C15   1.442       .  A
C11          C12   1.427       .  A
C11          H16   1.078       .  S
C12          C13   1.408       .  A
C12          C57   1.530       .  S
C13          C14   1.414       .  A
C13          H17   1.084       .  S
C14          C15   1.437       .  A
C14         C111   1.546       .  S
C15          H18   1.079       .  S
C19          C20   1.453       .  A
C19          C24   1.437       .  A
C19         C796   1.585   1_455  S
C20          C21   1.445       .  A
C20          H25   1.078       .  S
C21          C22   1.407       .  A
C21          C47   1.554       .  S
C22          C23   1.405       .  A
C22          H26   1.084       .  S
C23          C24   1.426       .  A
C23         C110   1.532       .  S
C24          H27   1.077       .  S
C28          C29   1.433       .  A
C28          C33   1.445       .  A
C28         C787   1.585       .  S
C29          C30   1.434       .  A
C29          H34   1.078       .  S
C30          C31   1.409       .  A
C30          C58   1.542       .  S
C31          C32   1.409       .  A
C31          H35   1.084       .  S
C32          C33   1.440       .  A
C32         C112   1.540       .  S
C33          H36   1.076       .  S
C37          C38   1.421       .  A
C37         C426   1.392       .  A
C37         C373   1.487       .  S
C38          C39   1.425       .  A
C38          H43   1.082       .  S
C39         C424   1.396       .  A
C39          C46   1.489       .  S
C40          C41   1.384       .  A
C40         C423   1.396   1_554  A
C40          H44   1.080       .  S
C41          C42   1.382       .  A
C41          C88   1.449       .  S
C42         C421   1.392       .  A
C42          H45   1.085       .  S
C46         C431   1.397       .  D
C47          C52   1.526       .  S
C47         C430   1.397   1_554  D
C48          C53   1.430       .  A
C48         C433   1.398       .  A
C48         C361   1.488       .  S
C49          C50   1.370       .  A
C49         C432   1.398       .  A
C49          H54   1.067       .  S
C50          C51   1.381       .  A
C50         C144   1.458       .  S
C51         C436   1.415       .  A
C51          H55   1.079       .  S
C52          C53   1.439       .  A
C52         C435   1.416       .  A
C53          H56   1.074   1_554  S
C57          C61   1.499       .  S
C57         C442   1.393       .  D
C58          C70   1.496       .  S
C58         C441   1.393   1_554  D
C59          C60   1.437       .  A
C59         C448   1.408       .  A
C59         C352   1.528       .  S
C60          C61   1.437       .  A
C60          H65   1.082       .  S
C61         C446   1.385       .  A
C62          C63   1.384       .  A
C62         C445   1.385   1_554  A
C62          H66   1.086       .  S
C63          C64   1.376       .  A
C63          C89   1.436       .  S
C64         C443   1.408       .  A
C64          H67   1.077       .  S
C68          C69   1.432       .  A
C68         C457   1.397       .  A
C68         C337   1.479       .  S
C69          C70   1.431       .  A
C69          H74   1.082       .  S
C70         C455   1.382       .  A
C71          C72   1.375       .  A
C71         C454   1.382       .  A
C71          H75   1.079       .  S
C72          C73   1.361       .  A
C72         C141   1.433       .  S
C73         C452   1.397       .  A
C73          H76   1.080       .  S
O77         Ni85   1.909       .  S
O77          C87   1.281       .  A
O78         Ni85   1.883       .  S
O78          C88   1.278       .  A
O79         Ni85   1.910       .  S
O79          C89   1.279       .  A
O80         Ni85   1.925       .  S
O80          C90   1.281       .  A
O81         Ni86   1.845       .  S
O81          C90   1.274       .  A
O82         Ni86   1.866       .  S
O82          C89   1.269       .  A
O83         Ni86   1.886       .  S
O83          C88   1.277       .  A
O84         Ni86   1.877       .  S
O84          C87   1.279       .  A
Ni85        Ni86   2.393       .  S
C87         C115   1.476       .  S
C90          C93   1.463       .  S
C91          C92   1.407       .  A
C91          C96   1.419       .  A
C91         C325   1.467       .  S
C92          C93   1.373       .  A
C92          H97   1.083       .  S
C93          C94   1.384       .  A
C94          C95   1.396       .  A
C94          H98   1.076       .  S
C95          C96   1.418       .  A
C95         C109   1.505       .  S
C96          H99   1.081       .  S
C100        C101   1.432       .  A
C100        C105   1.404       .  A
C100        C313   1.487       .  S
C101        C102   1.420       .  A
C101        H106   1.082       .  S
C102        C103   1.370       .  A
C102        C110   1.482       .  S
C103        C104   1.382       .  A
C103        H107   1.088       .  S
C104        C105   1.373       .  A
C104        C142   1.437       .  S
C105        H108   1.075       .  S
C109        C110   1.396       .  D
C111        C117   1.525       .  S
C111        C112   1.399       .  D
C112        C124   1.479       .  S
C113        C114   1.407       .  A
C113        C118   1.425       .  A
C113        C304   1.487       .  S
C114        C115   1.380       .  A
C114        H119   1.075       .  S
C115        C116   1.384       .  A
C116        C117   1.426       .  A
C116        H120   1.077       .  S
C117        C118   1.430       .  A
C118        H121   1.075       .  S
C122        C123   1.417       .  A
C122        C127   1.410       .  A
C122        C292   1.491       .  S
C123        C124   1.414       .  A
C123        H128   1.082       .  S
C124        C125   1.385       .  A
C125        C126   1.388       .  A
C125        H129   1.082       .  S
C126        C127   1.390       .  A
C126        C143   1.460       .  S
C127        H130   1.083       .  S
O131       Ni139   1.908       .  S
O131        C141   1.276       .  A
O132       Ni907   1.922       .  S
O132        C142   1.282       .  A
O133       Ni139   1.914       .  S
O133        C143   1.281       .  A
O134       Ni907   1.906       .  S
O134        C144   1.280       .  A
O135       Ni908   1.852       .  S
O135        C144   1.274       .  A
O136       Ni140   1.873       .  S
O136        C143   1.276       .  A
O137       Ni908   1.836       .  S
O137        C142   1.267       .  A
O138       Ni140   1.822       .  S
O138        C141   1.267       .  A
Ni139       O900   1.922       .  S
Ni139       O902   1.906       .  S
Ni139      Ni140   2.372       .  S
Ni140       O903   1.852       .  S
Ni140       O905   1.836       .  S
C145        C146   1.445       .  A
C145        C150   1.438       .  A
C145        C154   1.580       .  S
C146        C147   1.438       .  A
C146        H151   1.078       .  S
C147        C148   1.411       .  A
C147        C190   1.544       .  S
C148        C149   1.405       .  A
C148        H152   1.084       .  S
C149        C150   1.429       .  A
C149        C219   1.530       .  S
C150        H153   1.078       .  S
C154        C155   1.440       .  A
C154        C159   1.436       .  A
C155        C156   1.437       .  A
C155        H160   1.075       .  S
C156        C157   1.421       .  A
C156        C221   1.558       .  S
C157        C158   1.425       .  A
C157        H161   1.083       .  S
C158        C159   1.431       .  A
C158        C274   1.545       .  S
C159        H162   1.079       .  S
C163        C164   1.441       .  A
C163        C168   1.433       .  A
C163        C940   1.580   1_455  S
C164        C165   1.441       .  A
C164        H169   1.076       .  S
C165        C166   1.406       .  A
C165        C191   1.539       .  S
C166        C167   1.406       .  A
C166        H170   1.084       .  S
C167        C168   1.431       .  A
C167        C220   1.531       .  S
C168        H171   1.078       .  S
C172        C173   1.447       .  A
C172        C177   1.438       .  A
C172        C931   1.580       .  S
C173        C174   1.440       .  A
C173        H178   1.078       .  S
C174        C175   1.405       .  A
C174        C222   1.546       .  S
C175        C176   1.404       .  A
C175        H179   1.084       .  S
C176        C177   1.428       .  A
C176        C273   1.533       .  S
C177        H180   1.078       .  S
C181        C182   1.413       .  A
C181        C186   1.410       .  A
C181        C328   1.482       .  S
C182        C183   1.423       .  A
C182        H187   1.068       .  S
C183        C184   1.424       .  A
C183        C190   1.525       .  S
C184        C185   1.395       .  A
C184        H188   1.080       .  S
C185        C186   1.385       .  A
C185        C285   1.476       .  S
C186        H189   1.083       .  S
C190        C191   1.398       .  D
C191        C194   1.478       .  S
C192        C193   1.419       .  A
C192        C197   1.413       .  A
C192        C316   1.493       .  S
C193        C194   1.416       .  A
C193        H198   1.082       .  S
C194        C195   1.383       .  A
C195        C196   1.384       .  A
C195        H199   1.081       .  S
C196        C197   1.390       .  A
C196        C253   1.462       .  S
C197        H200   1.084       .  S
C201        C202   1.426       .  A
C201        C590   1.388       .  A
C201        C364   1.483       .  S
C202        C203   1.430       .  A
C202        H207   1.082       .  S
C203        C588   1.381       .  A
C203        C220   1.489       .  S
C204        C205   1.379       .  A
C204        C587   1.381       .  A
C204        H208   1.083       .  S
C205        C206   1.370   1_556  A
C205        C251   1.417   1_556  S
C206        C585   1.388   1_554  A
C206        H209   1.071       .  S
C210        C215   1.432   1_556  A
C210        C595   1.408       .  A
C210        C376   1.498   1_556  S
C211        C212   1.381       .  A
C211        C594   1.408       .  A
C211        H216   1.080       .  S
C212        C213   1.384       .  A
C212        C287   1.445       .  S
C213        C598   1.380       .  A
C213        H217   1.087       .  S
C214        C215   1.429       .  A
C214        C597   1.380   1_554  A
C214        C219   1.496       .  S
C215        H218   1.082       .  S
C219        C604   1.388   1_554  D
C220        C603   1.388       .  D
C221        C227   1.500   1_554  S
C221        C606   1.400   1_554  D
C222        C234   1.523       .  S
C222        C605   1.400       .  D
C223        C228   1.429       .  A
C223        C608   1.387       .  A
C223        C349   1.498       .  S
C224        C225   1.382       .  A
C224        C607   1.387       .  A
C224        H229   1.083       .  S
C225        C226   1.382       .  A
C225        C286   1.443       .  S
C226        C611   1.397       .  A
C226        H230   1.077       .  S
C227        C228   1.433       .  A
C227        C610   1.397       .  A
C228        H231   1.082   1_556  S
C232        C233   1.429       .  A
C232        C621   1.406       .  A
C232        C340   1.482       .  S
C233        C234   1.430       .  A
C233        H238   1.077       .  S
C234        C619   1.416       .  A
C235        C236   1.385       .  A
C235        C618   1.416       .  A
C235        H239   1.079       .  S
C236        C237   1.378       .  A
C236        C254   1.468       .  S
C237        C616   1.406       .  A
C237        H240   1.081       .  S
O241      Ni1017   1.826   1_455  S
O241        C251   1.264       .  A
O242       Ni249   1.836       .  S
O242        C252   1.266       .  A
O243      Ni1017   1.881   1_455  S
O243        C253   1.278       .  A
O244       Ni249   1.859       .  S
O244        C254   1.274   1_554  A
O245       Ni250   1.924       .  S
O245        C254   1.281   1_554  A
O246      Ni1018   1.909   1_455  S
O246        C253   1.280       .  A
O247       Ni250   1.924       .  S
O247        C252   1.280       .  A
O248      Ni1018   1.911   1_455  S
O248        C251   1.280       .  A
Ni249      O1009   1.826       .  S
Ni249      O1011   1.881       .  S
Ni249      Ni250   2.367       .  S
Ni250      O1014   1.909       .  S
Ni250      O1016   1.911       .  S
C252        C257   1.441       .  S
C255        C256   1.409       .  A
C255        C260   1.427       .  A
C255        C289   1.482       .  S
C256        C257   1.375       .  A
C256        H261   1.080       .  S
C257        C258   1.384       .  A
C258        C259   1.367       .  A
C258        H262   1.088       .  S
C259        C260   1.417       .  A
C259        C273   1.474       .  S
C260        H263   1.082       .  S
C264        C265   1.415       .  A
C264        C269   1.411       .  A
C264        C301   1.468       .  S
C265        C266   1.413       .  A
C265        H270   1.082       .  S
C266        C267   1.390       .  A
C266        C274   1.489       .  S
C267        C268   1.381       .  A
C267        H271   1.081       .  S
C268        C269   1.377       .  A
C268        C288   1.466       .  S
C269        H272   1.082       .  S
C273        C274   1.395       .  D
O275       Ni283   1.861       .  S
O275        C285   1.275       .  A
O276       Ni283   1.877       .  S
O276        C286   1.272       .  A
O277       Ni283   1.871       .  S
O277        C287   1.275       .  A
O278       Ni283   1.852       .  S
O278        C288   1.274       .  A
O279       Ni284   1.930       .  S
O279        C288   1.281       .  A
O280       Ni284   1.909       .  S
O280        C287   1.277       .  A
O281       Ni284   1.885       .  S
O281        C286   1.280       .  A
O282       Ni284   1.926       .  S
O282        C285   1.284       .  A
Ni283      Ni284   2.390       .  S
C289        C290   1.408       .  A
C289        C294   1.396       .  A
C290        C291   1.404       .  A
C290        H295   1.078       .  S
C291        C292   1.408       .  A
C291        O296   1.372       .  S
C292        C293   1.410       .  A
C293        C294   1.400       .  A
C293        H297   1.082       .  S
C294        O298   1.367       .  S
O296        H300   0.992       .  S
O298        H299   0.992       .  S
C301        C302   1.396       .  A
C301        C306   1.409       .  A
C302        C303   1.399       .  A
C302        H307   1.085       .  S
C303        C304   1.421   1_565  A
C303        O308   1.373       .  S
C304        C305   1.405       .  A
C305        C306   1.407   1_545  A
C305        H309   1.083       .  S
C306        O310   1.367       .  S
O308        H312   0.992       .  S
O310        H311   0.991       .  S
C313        C314   1.414       .  A
C313        C318   1.397       .  A
C314        C315   1.409       .  A
C314        H319   1.083       .  S
C315        C316   1.405       .  A
C315        O320   1.370       .  S
C316        C317   1.405       .  A
C317        C318   1.399       .  A
C317        H321   1.083       .  S
C318        O322   1.366       .  S
O320        H324   0.991       .  S
O322        H323   0.991       .  S
C325        C326   1.409       .  A
C325        C330   1.405       .  A
C326        C327   1.404   1_545  A
C326        H331   1.081   1_455  S
C327        C328   1.406       .  A
C327        O332   1.372       .  S
C328        C329   1.406       .  A
C329        C330   1.397   1_565  A
C329        H333   1.081       .  S
C330        O334   1.375       .  S
O332        H336   0.992       .  S
O334        H335   0.990       .  S
C337        C338   1.411       .  A
C337        C726   1.407   1_554  A
C338        C339   1.403       .  A
C338        H343   1.075       .  S
C339        C724   1.399   1_554  A
C339        O344   1.368       .  S
C340        C341   1.409       .  A
C340        C723   1.399       .  A
C341        C342   1.408       .  A
C341        H345   1.078       .  S
C342        C721   1.407       .  A
C342        O346   1.372       .  S
O344        H348   0.991       .  S
O346        H347   0.992       .  S
C349        C350   1.384   1_556  A
C349        C738   1.429       .  A
C350        C351   1.393   1_565  A
C350        H355   1.083       .  S
C351        C736   1.419       .  A
C351        O356   1.364   1_545  S
C352        C353   1.410       .  A
C352        C735   1.419       .  A
C353        C354   1.433   1_545  A
C353        H357   1.082       .  S
C354        C733   1.429       .  A
C354        O358   1.370       .  S
O356        H360   0.992       .  S
O358        H359   0.989       .  S
C361        C366   1.412       .  A
C361        C746   1.401   1_554  A
C362        C363   1.411       .  A
C362        C745   1.401       .  A
C362        H367   1.079       .  S
C363        C364   1.413       .  A
C363        O368   1.369       .  S
C364        C749   1.403       .  A
C365        C366   1.406       .  A
C365        C748   1.403   1_554  A
C365        H369   1.083       .  S
C366        O370   1.370       .  S
O368        H372   0.993       .  S
O370        H371   0.992       .  S
C373        C374   1.414       .  A
C373        C762   1.396       .  A
C374        C375   1.411   1_545  A
C374        H379   1.080       .  S
C375        C760   1.408       .  A
C375        O380   1.371       .  S
C376        C377   1.413   1_554  A
C376        C759   1.408       .  A
C377        C378   1.406   1_565  A
C377        H381   1.084       .  S
C378        C757   1.396   1_556  A
C378        O382   1.370       .  S
O380        H384   0.991       .  S
O382        H383   0.992       .  S
C385        C386   1.436       .  A
C385        C390   1.435       .  A
C385        C394   1.575       .  S
C386        C387   1.435       .  A
C386        H391   1.075       .  S
C387        C388   1.419       .  A
C387        C430   1.551       .  S
C388        C389   1.422       .  A
C388        H392   1.083       .  S
C389        C390   1.430       .  A
C389        C493   1.544       .  S
C390        H393   1.079       .  S
C394        C395   1.438       .  A
C394        C399   1.442       .  A
C395        C396   1.427       .  A
C395        H400   1.078       .  S
C396        C397   1.408       .  A
C396        C441   1.530       .  S
C397        C398   1.414       .  A
C397        H401   1.084       .  S
C398        C399   1.437       .  A
C398        C495   1.546       .  S
C399        H402   1.079       .  S
C403        C404   1.453       .  A
C403        C408   1.437       .  A
C403       C1180   1.585   1_455  S
C404        C405   1.445       .  A
C404        H409   1.078       .  S
C405        C406   1.407       .  A
C405        C431   1.554       .  S
C406        C407   1.405       .  A
C406        H410   1.084       .  S
C407        C408   1.426       .  A
C407        C494   1.532       .  S
C408        H411   1.077       .  S
C412        C413   1.433       .  A
C412        C417   1.445       .  A
C412       C1171   1.585       .  S
C413        C414   1.434       .  A
C413        H418   1.078       .  S
C414        C415   1.409       .  A
C414        C442   1.542       .  S
C415        C416   1.409       .  A
C415        H419   1.084       .  S
C416        C417   1.440       .  A
C416        C496   1.540       .  S
C417        H420   1.076       .  S
C421        C422   1.421       .  A
C421        C757   1.487       .  S
C422        C423   1.425   1_554  A
C422        H427   1.082   1_554  S
C423        C430   1.489       .  S
C424        C425   1.384       .  A
C424        H428   1.080       .  S
C425        C426   1.382       .  A
C425        C472   1.449       .  S
C426        H429   1.085       .  S
C431        C436   1.525       .  S
C432        C437   1.430       .  A
C432        C745   1.488       .  S
C433        C434   1.370       .  A
C433        H438   1.067       .  S
C434        C435   1.381       .  A
C434        C528   1.458       .  S
C435        H439   1.079       .  S
C436        C437   1.439       .  A
C437        H440   1.074       .  S
C441        C445   1.499       .  S
C442        C454   1.496       .  S
C443        C444   1.437   1_554  A
C443        C736   1.529       .  S
C444        C445   1.437       .  A
C444        H449   1.082       .  S
C446        C447   1.384       .  A
C446        H450   1.086       .  S
C447        C448   1.376       .  A
C447        C473   1.435       .  S
C448        H451   1.077       .  S
C452        C453   1.432       .  A
C452        C721   1.479       .  S
C453        C454   1.431       .  A
C453        H458   1.082       .  S
C455        C456   1.375       .  A
C455        H459   1.079       .  S
C456        C457   1.361       .  A
C456        C525   1.433   1_554  S
C457        H460   1.080       .  S
O461       Ni469   1.909       .  S
O461        C471   1.281       .  A
O462       Ni469   1.883       .  S
O462        C472   1.278       .  A
O463       Ni469   1.909       .  S
O463        C473   1.279       .  A
O464       Ni469   1.925       .  S
O464        C474   1.281       .  A
O465       Ni470   1.845       .  S
O465        C474   1.274       .  A
O466       Ni470   1.866       .  S
O466        C473   1.269       .  A
O467       Ni470   1.886       .  S
O467        C472   1.277       .  A
O468       Ni470   1.877       .  S
O468        C471   1.279       .  A
Ni469      Ni470   2.393       .  S
C471        C499   1.476       .  S
C474        C477   1.463       .  S
C475        C476   1.407       .  A
C475        C480   1.419       .  A
C475        C709   1.467       .  S
C476        C477   1.373       .  A
C476        H481   1.083       .  S
C477        C478   1.384       .  A
C478        C479   1.396       .  A
C478        H482   1.076       .  S
C479        C480   1.418       .  A
C479        C493   1.505       .  S
C480        H483   1.081       .  S
C484        C485   1.432       .  A
C484        C489   1.404       .  A
C484        C697   1.487       .  S
C485        C486   1.420       .  A
C485        H490   1.082       .  S
C486        C487   1.370       .  A
C486        C494   1.481       .  S
C487        C488   1.382       .  A
C487        H491   1.088       .  S
C488        C489   1.373       .  A
C488        C526   1.437       .  S
C489        H492   1.075       .  S
C493        C494   1.396       .  D
C495        C501   1.525       .  S
C495        C496   1.399       .  D
C496        C508   1.479       .  S
C497        C498   1.407       .  A
C497        C502   1.425       .  A
C497        C688   1.487       .  S
C498        C499   1.380       .  A
C498        H503   1.075       .  S
C499        C500   1.384       .  A
C500        C501   1.426       .  A
C500        H504   1.077       .  S
C501        C502   1.430       .  A
C502        H505   1.075       .  S
C506        C507   1.417       .  A
C506        C511   1.410       .  A
C506        C676   1.491       .  S
C507        C508   1.414       .  A
C507        H512   1.082       .  S
C508        C509   1.385       .  A
C509        C510   1.388       .  A
C509        H513   1.082       .  S
C510        C511   1.390       .  A
C510        C527   1.461       .  S
C511        H514   1.083       .  S
O515       Ni523   1.909       .  S
O515        C525   1.276       .  A
O516      Ni1291   1.922       .  S
O516        C526   1.282       .  A
O517       Ni523   1.914       .  S
O517        C527   1.281       .  A
O518      Ni1291   1.906       .  S
O518        C528   1.280   1_556  A
O519      Ni1292   1.852       .  S
O519        C528   1.274   1_556  A
O520       Ni524   1.874       .  S
O520        C527   1.276       .  A
O521      Ni1292   1.836       .  S
O521        C526   1.267       .  A
O522       Ni524   1.822       .  S
O522        C525   1.267       .  A
Ni523      O1284   1.922       .  S
Ni523      O1286   1.906       .  S
Ni523      Ni524   2.372       .  S
Ni524      O1287   1.852       .  S
Ni524      O1289   1.836       .  S
C529        C530   1.445       .  A
C529        C534   1.438       .  A
C529        C538   1.580       .  S
C530        C531   1.438       .  A
C530        H535   1.078       .  S
C531        C532   1.411       .  A
C531        C574   1.544       .  S
C532        C533   1.405       .  A
C532        H536   1.084       .  S
C533        C534   1.429       .  A
C533        C603   1.530       .  S
C534        H537   1.078       .  S
C538        C539   1.440       .  A
C538        C543   1.436       .  A
C539        C540   1.437       .  A
C539        H544   1.075       .  S
C540        C541   1.421       .  A
C540        C605   1.558       .  S
C541        C542   1.425       .  A
C541        H545   1.083       .  S
C542        C543   1.431       .  A
C542        C658   1.545       .  S
C543        H546   1.079       .  S
C547        C548   1.441       .  A
C547        C552   1.433       .  A
C547       C1324   1.580   1_455  S
C548        C549   1.441       .  A
C548        H553   1.076       .  S
C549        C550   1.406       .  A
C549        C575   1.539       .  S
C550        C551   1.406       .  A
C550        H554   1.084       .  S
C551        C552   1.431       .  A
C551        C604   1.531       .  S
C552        H555   1.078       .  S
C556        C557   1.447       .  A
C556        C561   1.438       .  A
C556       C1315   1.580       .  S
C557        C558   1.440       .  A
C557        H562   1.078       .  S
C558        C559   1.405       .  A
C558        C606   1.546       .  S
C559        C560   1.404       .  A
C559        H563   1.084       .  S
C560        C561   1.428       .  A
C560        C657   1.533       .  S
C561        H564   1.078       .  S
C565        C566   1.412       .  A
C565        C570   1.410       .  A
C565        C712   1.482       .  S
C566        C567   1.423       .  A
C566        H571   1.068       .  S
C567        C568   1.424       .  A
C567        C574   1.524       .  S
C568        C569   1.395       .  A
C568        H572   1.080       .  S
C569        C570   1.385       .  A
C569        C669   1.476       .  S
C570        H573   1.083       .  S
C574        C575   1.398       .  D
C575        C578   1.478       .  S
C576        C577   1.419       .  A
C576        C581   1.413       .  A
C576        C700   1.493       .  S
C577        C578   1.416       .  A
C577        H582   1.082       .  S
C578        C579   1.383       .  A
C579        C580   1.384       .  A
C579        H583   1.081       .  S
C580        C581   1.390       .  A
C580        C637   1.462       .  S
C581        H584   1.084       .  S
C585        C586   1.426       .  A
C585        C748   1.483       .  S
C586        C587   1.430       .  A
C586        H591   1.082       .  S
C587        C604   1.489       .  S
C588        C589   1.379       .  A
C588        H592   1.083       .  S
C589        C590   1.370       .  A
C589        C635   1.417       .  S
C590        H593   1.071       .  S
C594        C599   1.432       .  A
C594        C760   1.498       .  S
C595        C596   1.381       .  A
C595        H600   1.080       .  S
C596        C597   1.384       .  A
C596        C671   1.445       .  S
C597        H601   1.087       .  S
C598        C599   1.429       .  A
C598        C603   1.496       .  S
C599        H602   1.082       .  S
C605        C611   1.500       .  S
C606        C618   1.523       .  S
C607        C612   1.429       .  A
C607        C733   1.498       .  S
C608        C609   1.381       .  A
C608        H613   1.083       .  S
C609        C610   1.382       .  A
C609        C670   1.443       .  S
C610        H614   1.077       .  S
C611        C612   1.433       .  A
C612        H615   1.082       .  S
C616        C617   1.430       .  A
C616        C724   1.482       .  S
C617        C618   1.430       .  A
C617        H622   1.077       .  S
C619        C620   1.385       .  A
C619        H623   1.079       .  S
C620        C621   1.379       .  A
C620        C638   1.468       .  S
C621        H624   1.081       .  S
O625      Ni1401   1.826   1_455  S
O625        C635   1.264       .  A
O626       Ni633   1.836       .  S
O626        C636   1.266       .  A
O627      Ni1401   1.881   1_455  S
O627        C637   1.278       .  A
O628       Ni633   1.859       .  S
O628        C638   1.274       .  A
O629       Ni634   1.924       .  S
O629        C638   1.280       .  A
O630      Ni1402   1.909   1_455  S
O630        C637   1.280       .  A
O631       Ni634   1.923       .  S
O631        C636   1.280       .  A
O632      Ni1402   1.911   1_455  S
O632        C635   1.280       .  A
Ni633      O1393   1.826       .  S
Ni633      O1395   1.881       .  S
Ni633      Ni634   2.367       .  S
Ni634      O1398   1.909       .  S
Ni634      O1400   1.911       .  S
C636        C641   1.441       .  S
C639        C640   1.409       .  A
C639        C644   1.427       .  A
C639        C673   1.482       .  S
C640        C641   1.375       .  A
C640        H645   1.080       .  S
C641        C642   1.384       .  A
C642        C643   1.367       .  A
C642        H646   1.088       .  S
C643        C644   1.417       .  A
C643        C657   1.474       .  S
C644        H647   1.082       .  S
C648        C649   1.415       .  A
C648        C653   1.411       .  A
C648        C685   1.468       .  S
C649        C650   1.413       .  A
C649        H654   1.082       .  S
C650        C651   1.390       .  A
C650        C658   1.489       .  S
C651        C652   1.381       .  A
C651        H655   1.081       .  S
C652        C653   1.377       .  A
C652        C672   1.466       .  S
C653        H656   1.082       .  S
C657        C658   1.395       .  D
O659       Ni667   1.861       .  S
O659        C669   1.275       .  A
O660       Ni667   1.877       .  S
O660        C670   1.272       .  A
O661       Ni667   1.870       .  S
O661        C671   1.275       .  A
O662       Ni667   1.852       .  S
O662        C672   1.274       .  A
O663       Ni668   1.930       .  S
O663        C672   1.281       .  A
O664       Ni668   1.909       .  S
O664        C671   1.277       .  A
O665       Ni668   1.885       .  S
O665        C670   1.280       .  A
O666       Ni668   1.926       .  S
O666        C669   1.284       .  A
Ni667      Ni668   2.390       .  S
C673        C674   1.408       .  A
C673        C678   1.396       .  A
C674        C675   1.404       .  A
C674        H679   1.078       .  S
C675        C676   1.408       .  A
C675        O680   1.372       .  S
C676        C677   1.410       .  A
C677        C678   1.400       .  A
C677        H681   1.082       .  S
C678        O682   1.367       .  S
O680        H684   0.992       .  S
O682        H683   0.992       .  S
C685        C686   1.396       .  A
C685        C690   1.409       .  A
C686        C687   1.399       .  A
C686        H691   1.085       .  S
C687        C688   1.421   1_565  A
C687        O692   1.373       .  S
C688        C689   1.405       .  A
C689        C690   1.407   1_545  A
C689        H693   1.083       .  S
C690        O694   1.367       .  S
O692        H696   0.992       .  S
O694        H695   0.991       .  S
C697        C698   1.414       .  A
C697        C702   1.397       .  A
C698        C699   1.409       .  A
C698        H703   1.083       .  S
C699        C700   1.405       .  A
C699        O704   1.370       .  S
C700        C701   1.405       .  A
C701        C702   1.399       .  A
C701        H705   1.083       .  S
C702        O706   1.367       .  S
O704        H708   0.991       .  S
O706        H707   0.991       .  S
C709        C710   1.409       .  A
C709        C714   1.405       .  A
C710        C711   1.404   1_545  A
C710        H715   1.081   1_455  S
C711        C712   1.406       .  A
C711        O716   1.372       .  S
C712        C713   1.406       .  A
C713        C714   1.397   1_565  A
C713        H717   1.081       .  S
C714        O718   1.375       .  S
O716        H720   0.992       .  S
O718        H719   0.990       .  S
C721        C722   1.411       .  A
C722        C723   1.403       .  A
C722        H727   1.075       .  S
C723        O728   1.368       .  S
C724        C725   1.409       .  A
C725        C726   1.408       .  A
C725        H729   1.078       .  S
C726        O730   1.372       .  S
O728        H732   0.991       .  S
O730        H731   0.992       .  S
C733        C734   1.384       .  A
C734        C735   1.393   1_565  A
C734        H739   1.082       .  S
C735        O740   1.365   1_545  S
C736        C737   1.410   1_554  A
C737        C738   1.433   1_545  A
C737        H741   1.082       .  S
C738        O742   1.370       .  S
O740        H744   0.992       .  S
O742        H743   0.989       .  S
C745        C750   1.412       .  A
C746        C747   1.411       .  A
C746        H751   1.079       .  S
C747        C748   1.413       .  A
C747        O752   1.369       .  S
C749        C750   1.406       .  A
C749        H753   1.083       .  S
C750        O754   1.371       .  S
O752        H756   0.993       .  S
O754        H755   0.992       .  S
C757        C758   1.414       .  A
C758        C759   1.411   1_545  A
C758        H763   1.080       .  S
C759        O764   1.371       .  S
C760        C761   1.413       .  A
C761        C762   1.406   1_565  A
C761        H765   1.084       .  S
C762        O766   1.370       .  S
O764        H768   0.991       .  S
O766        H767   0.992       .  S
C769        C770   1.436       .  A
C769        C774   1.435       .  A
C769        C778   1.575       .  S
C770        C771   1.435       .  A
C770        H775   1.075       .  S
C771        C772   1.419       .  A
C771        C814   1.552       .  S
C772        C773   1.422       .  A
C772        H776   1.083       .  S
C773        C774   1.430       .  A
C773        C877   1.544       .  S
C774        H777   1.079       .  S
C778        C779   1.438       .  A
C778        C783   1.442       .  A
C779        C780   1.427       .  A
C779        H784   1.078       .  S
C780        C781   1.408       .  A
C780        C825   1.530       .  S
C781        C782   1.414       .  A
C781        H785   1.084       .  S
C782        C783   1.437       .  A
C782        C879   1.546       .  S
C783        H786   1.079       .  S
C787        C788   1.453       .  A
C787        C792   1.437       .  A
C788        C789   1.445       .  A
C788        H793   1.078       .  S
C789        C790   1.407       .  A
C789        C815   1.554       .  S
C790        C791   1.405       .  A
C790        H794   1.084       .  S
C791        C792   1.426       .  A
C791        C878   1.532       .  S
C792        H795   1.077       .  S
C796        C797   1.433       .  A
C796        C801   1.445       .  A
C797        C798   1.434       .  A
C797        H802   1.078       .  S
C798        C799   1.409       .  A
C798        C826   1.542       .  S
C799        C800   1.409       .  A
C799        H803   1.084       .  S
C800        C801   1.440       .  A
C800        C880   1.540       .  S
C801        H804   1.076       .  S
C805        C806   1.421       .  A
C805       C1194   1.392       .  A
C805       C1141   1.487       .  S
C806        C807   1.425       .  A
C806        H811   1.082       .  S
C807       C1192   1.396       .  A
C807        C814   1.489       .  S
C808       C1191   1.396   1_554  A
C808        C809   1.384       .  A
C808        H812   1.080       .  S
C809        C810   1.382       .  A
C809        C856   1.449       .  S
C810       C1189   1.392       .  A
C810        H813   1.085       .  S
C814       C1199   1.397       .  D
C815        C820   1.526       .  S
C815       C1198   1.397   1_554  D
C816       C1201   1.398       .  A
C816        C821   1.430       .  A
C816       C1129   1.488       .  S
C817       C1200   1.398       .  A
C817        C818   1.370       .  A
C817        H822   1.067       .  S
C818        C819   1.381       .  A
C818        C912   1.458       .  S
C819       C1204   1.415       .  A
C819        H823   1.079       .  S
C820       C1203   1.416       .  A
C820        C821   1.439       .  A
C821        H824   1.074   1_554  S
C825        C829   1.499       .  S
C825       C1210   1.393       .  D
C826        C838   1.496       .  S
C826       C1209   1.393   1_554  D
C827        C828   1.437       .  A
C827       C1216   1.408       .  A
C827       C1120   1.528       .  S
C828        C829   1.437       .  A
C828        H833   1.082       .  S
C829       C1214   1.385       .  A
C830       C1213   1.385   1_554  A
C830        C831   1.384       .  A
C830        H834   1.086       .  S
C831        C832   1.376       .  A
C831        C857   1.436       .  S
C832       C1211   1.408       .  A
C832        H835   1.077       .  S
C836        C837   1.432       .  A
C836       C1225   1.397       .  A
C836       C1105   1.479       .  S
C837        C838   1.431       .  A
C837        H842   1.082       .  S
C838       C1223   1.382       .  A
C839       C1222   1.382       .  A
C839        C840   1.375       .  A
C839        H843   1.079       .  S
C840        C841   1.361       .  A
C840        C909   1.433       .  S
C841       C1220   1.397       .  A
C841        H844   1.080       .  S
O845       Ni853   1.909       .  S
O845        C855   1.281       .  A
O846       Ni853   1.883       .  S
O846        C856   1.278       .  A
O847       Ni853   1.910       .  S
O847        C857   1.279       .  A
O848       Ni853   1.925       .  S
O848        C858   1.281       .  A
O849       Ni854   1.845       .  S
O849        C858   1.274       .  A
O850       Ni854   1.866       .  S
O850        C857   1.269       .  A
O851       Ni854   1.886       .  S
O851        C856   1.277       .  A
O852       Ni854   1.877       .  S
O852        C855   1.279       .  A
Ni853      Ni854   2.393       .  S
C855        C883   1.476       .  S
C858        C861   1.463       .  S
C859        C860   1.407       .  A
C859        C864   1.419       .  A
C859       C1093   1.467       .  S
C860        C861   1.373       .  A
C860        H865   1.083       .  S
C861        C862   1.384       .  A
C862        C863   1.396       .  A
C862        H866   1.076       .  S
C863        C864   1.418       .  A
C863        C877   1.505       .  S
C864        H867   1.081       .  S
C868        C869   1.432       .  A
C868        C873   1.404       .  A
C868       C1081   1.487       .  S
C869        C870   1.420       .  A
C869        H874   1.082       .  S
C870        C871   1.370       .  A
C870        C878   1.482       .  S
C871        C872   1.382       .  A
C871        H875   1.088       .  S
C872        C873   1.373       .  A
C872        C910   1.437       .  S
C873        H876   1.075       .  S
C877        C878   1.396       .  D
C879        C885   1.525       .  S
C879        C880   1.399       .  D
C880        C892   1.479       .  S
C881        C882   1.407       .  A
C881        C886   1.425       .  A
C881       C1072   1.487       .  S
C882        C883   1.380       .  A
C882        H887   1.075       .  S
C883        C884   1.384       .  A
C884        C885   1.426       .  A
C884        H888   1.077       .  S
C885        C886   1.430       .  A
C886        H889   1.075       .  S
C890        C891   1.417       .  A
C890        C895   1.410       .  A
C890       C1060   1.491       .  S
C891        C892   1.414       .  A
C891        H896   1.082       .  S
C892        C893   1.385       .  A
C893        C894   1.388       .  A
C893        H897   1.082       .  S
C894        C895   1.390       .  A
C894        C911   1.460       .  S
C895        H898   1.083       .  S
O899       Ni907   1.908   1_655  S
O899        C909   1.276       .  A
O900        C910   1.282       .  A
O901       Ni907   1.914   1_655  S
O901        C911   1.281       .  A
O902        C912   1.280       .  A
O903        C912   1.274       .  A
O904       Ni908   1.873   1_655  S
O904        C911   1.276       .  A
O905        C910   1.267       .  A
O906       Ni908   1.822   1_655  S
O906        C909   1.267       .  A
Ni907      Ni908   2.372       .  S
C913        C914   1.445       .  A
C913        C918   1.438       .  A
C913        C922   1.580       .  S
C914        C915   1.438       .  A
C914        H919   1.078       .  S
C915        C916   1.411       .  A
C915        C958   1.544       .  S
C916        C917   1.405       .  A
C916        H920   1.084       .  S
C917        C918   1.429       .  A
C917        C987   1.530       .  S
C918        H921   1.078       .  S
C922        C923   1.440       .  A
C922        C927   1.436       .  A
C923        C924   1.437       .  A
C923        H928   1.075       .  S
C924        C925   1.421       .  A
C924        C989   1.558       .  S
C925        C926   1.425       .  A
C925        H929   1.083       .  S
C926        C927   1.431       .  A
C926       C1042   1.545       .  S
C927        H930   1.079       .  S
C931        C932   1.441       .  A
C931        C936   1.433       .  A
C932        C933   1.441       .  A
C932        H937   1.076       .  S
C933        C934   1.406       .  A
C933        C959   1.539       .  S
C934        C935   1.406       .  A
C934        H938   1.084       .  S
C935        C936   1.431       .  A
C935        C988   1.531       .  S
C936        H939   1.078       .  S
C940        C941   1.447       .  A
C940        C945   1.438       .  A
C941        C942   1.440       .  A
C941        H946   1.078       .  S
C942        C943   1.405       .  A
C942        C990   1.546       .  S
C943        C944   1.404       .  A
C943        H947   1.084       .  S
C944        C945   1.428       .  A
C944       C1041   1.533       .  S
C945        H948   1.078       .  S
C949        C950   1.413       .  A
C949        C954   1.410       .  A
C949       C1096   1.482       .  S
C950        C951   1.423       .  A
C950        H955   1.068       .  S
C951        C952   1.424       .  A
C951        C958   1.525       .  S
C952        C953   1.395       .  A
C952        H956   1.080       .  S
C953        C954   1.385       .  A
C953       C1053   1.476       .  S
C954        H957   1.083       .  S
C958        C959   1.398       .  D
C959        C962   1.478       .  S
C960        C961   1.419       .  A
C960        C965   1.413       .  A
C960       C1084   1.493       .  S
C961        C962   1.416       .  A
C961        H966   1.082       .  S
C962        C963   1.383       .  A
C963        C964   1.384       .  A
C963        H967   1.081       .  S
C964        C965   1.390       .  A
C964       C1021   1.462       .  S
C965        H968   1.084       .  S
C969        C970   1.426       .  A
C969       C1358   1.388       .  A
C969       C1132   1.483       .  S
C970        C971   1.430       .  A
C970        H975   1.082       .  S
C971       C1356   1.381       .  A
C971        C988   1.489       .  S
C972       C1355   1.381       .  A
C972        C973   1.379       .  A
C972        H976   1.083       .  S
C973        C974   1.370   1_556  A
C973       C1019   1.417   1_556  S
C974       C1353   1.388   1_554  A
C974        H977   1.071       .  S
C978       C1363   1.408       .  A
C978        C983   1.432   1_556  A
C978       C1144   1.498   1_556  S
C979       C1362   1.408       .  A
C979        C980   1.381       .  A
C979        H984   1.080       .  S
C980        C981   1.384       .  A
C980       C1055   1.445       .  S
C981       C1366   1.380       .  A
C981        H985   1.087       .  S
C982       C1365   1.380   1_554  A
C982        C983   1.429       .  A
C982        C987   1.496       .  S
C983        H986   1.082       .  S
C987       C1372   1.388   1_554  D
C988       C1371   1.388       .  D
C989        C995   1.500   1_554  S
C989       C1374   1.400   1_554  D
C990       C1002   1.523       .  S
C990       C1373   1.400       .  D
C991       C1376   1.387       .  A
C991        C996   1.429       .  A
C991       C1117   1.498       .  S
C992       C1375   1.387       .  A
C992        C993   1.382       .  A
C992        H997   1.083       .  S
C993        C994   1.382       .  A
C993       C1054   1.443       .  S
C994       C1379   1.397       .  A
C994        H998   1.077       .  S
C995       C1378   1.397       .  A
C995        C996   1.433       .  A
C996        H999   1.082   1_556  S
C1000      C1001   1.429       .  A
C1000      C1389   1.406       .  A
C1000      C1108   1.482       .  S
C1001      C1002   1.430       .  A
C1001      H1006   1.077       .  S
C1002      C1387   1.416       .  A
C1003      C1386   1.416       .  A
C1003      C1004   1.385       .  A
C1003      H1007   1.079       .  S
C1004      C1005   1.378       .  A
C1004      C1022   1.468       .  S
C1005      C1384   1.406       .  A
C1005      H1008   1.081       .  S
O1009      C1019   1.264       .  A
O1010     Ni1017   1.836       .  S
O1010      C1020   1.266       .  A
O1011      C1021   1.278       .  A
O1012     Ni1017   1.859       .  S
O1012      C1022   1.274   1_554  A
O1013     Ni1018   1.924       .  S
O1013      C1022   1.281   1_554  A
O1014      C1021   1.280       .  A
O1015     Ni1018   1.924       .  S
O1015      C1020   1.280       .  A
O1016      C1019   1.280       .  A
Ni1017    Ni1018   2.367       .  S
C1020      C1025   1.441       .  S
C1023      C1024   1.409       .  A
C1023      C1028   1.427       .  A
C1023      C1057   1.482       .  S
C1024      C1025   1.375       .  A
C1024      H1029   1.080       .  S
C1025      C1026   1.384       .  A
C1026      C1027   1.367       .  A
C1026      H1030   1.088       .  S
C1027      C1028   1.417       .  A
C1027      C1041   1.474       .  S
C1028      H1031   1.082       .  S
C1032      C1033   1.415       .  A
C1032      C1037   1.411       .  A
C1032      C1069   1.468       .  S
C1033      C1034   1.413       .  A
C1033      H1038   1.082       .  S
C1034      C1035   1.390       .  A
C1034      C1042   1.489       .  S
C1035      C1036   1.381       .  A
C1035      H1039   1.081       .  S
C1036      C1037   1.377       .  A
C1036      C1056   1.466       .  S
C1037      H1040   1.082       .  S
C1041      C1042   1.395       .  D
O1043     Ni1051   1.861       .  S
O1043      C1053   1.275       .  A
O1044     Ni1051   1.877       .  S
O1044      C1054   1.272       .  A
O1045     Ni1051   1.871       .  S
O1045      C1055   1.275       .  A
O1046     Ni1051   1.852       .  S
O1046      C1056   1.274       .  A
O1047     Ni1052   1.930       .  S
O1047      C1056   1.281       .  A
O1048     Ni1052   1.909       .  S
O1048      C1055   1.277       .  A
O1049     Ni1052   1.885       .  S
O1049      C1054   1.280       .  A
O1050     Ni1052   1.926       .  S
O1050      C1053   1.284       .  A
Ni1051    Ni1052   2.390       .  S
C1057      C1058   1.408       .  A
C1057      C1062   1.396       .  A
C1058      C1059   1.404       .  A
C1058      H1063   1.078       .  S
C1059      C1060   1.408       .  A
C1059      O1064   1.372       .  S
C1060      C1061   1.410       .  A
C1061      C1062   1.400       .  A
C1061      H1065   1.082       .  S
C1062      O1066   1.367       .  S
O1064      H1068   0.992       .  S
O1066      H1067   0.992       .  S
C1069      C1070   1.396       .  A
C1069      C1074   1.409       .  A
C1070      C1071   1.399       .  A
C1070      H1075   1.085       .  S
C1071      C1072   1.421   1_565  A
C1071      O1076   1.373       .  S
C1072      C1073   1.405       .  A
C1073      C1074   1.407   1_545  A
C1073      H1077   1.083       .  S
C1074      O1078   1.367       .  S
O1076      H1080   0.992       .  S
O1078      H1079   0.991       .  S
C1081      C1082   1.414       .  A
C1081      C1086   1.397       .  A
C1082      C1083   1.409       .  A
C1082      H1087   1.083       .  S
C1083      C1084   1.405       .  A
C1083      O1088   1.370       .  S
C1084      C1085   1.405       .  A
C1085      C1086   1.399       .  A
C1085      H1089   1.083       .  S
C1086      O1090   1.366       .  S
O1088      H1092   0.991       .  S
O1090      H1091   0.991       .  S
C1093      C1094   1.409       .  A
C1093      C1098   1.405       .  A
C1094      C1095   1.404   1_545  A
C1094      H1099   1.081       .  S
C1095      C1096   1.406       .  A
C1095      O1100   1.372       .  S
C1096      C1097   1.406       .  A
C1097      C1098   1.397   1_565  A
C1097      H1101   1.081       .  S
C1098      O1102   1.375       .  S
O1100      H1104   0.992       .  S
O1102      H1103   0.990       .  S
C1105      C1106   1.411       .  A
C1105      C1494   1.407   1_554  A
C1106      C1107   1.403       .  A
C1106      H1111   1.075       .  S
C1107      C1492   1.399   1_554  A
C1107      O1112   1.368       .  S
C1108      C1491   1.399       .  A
C1108      C1109   1.409       .  A
C1109      C1110   1.408       .  A
C1109      H1113   1.078       .  S
C1110      C1489   1.407       .  A
C1110      O1114   1.372       .  S
O1112      H1116   0.991       .  S
O1114      H1115   0.992       .  S
C1117      C1118   1.384   1_556  A
C1117      C1506   1.429       .  A
C1118      C1119   1.393   1_565  A
C1118      H1123   1.083       .  S
C1119      C1504   1.419       .  A
C1119      O1124   1.364   1_545  S
C1120      C1503   1.419       .  A
C1120      C1121   1.410       .  A
C1121      C1122   1.433   1_545  A
C1121      H1125   1.082       .  S
C1122      C1501   1.429       .  A
C1122      O1126   1.370       .  S
O1124      H1128   0.992       .  S
O1126      H1127   0.989       .  S
C1129      C1514   1.401   1_554  A
C1129      C1134   1.412       .  A
C1130      C1513   1.401       .  A
C1130      C1131   1.411       .  A
C1130      H1135   1.079       .  S
C1131      C1132   1.413       .  A
C1131      O1136   1.369       .  S
C1132      C1517   1.403       .  A
C1133      C1516   1.403   1_554  A
C1133      C1134   1.406       .  A
C1133      H1137   1.083       .  S
C1134      O1138   1.370       .  S
O1136      H1140   0.993       .  S
O1138      H1139   0.992       .  S
C1141      C1142   1.414       .  A
C1141      C1530   1.396       .  A
C1142      C1143   1.411   1_545  A
C1142      H1147   1.080       .  S
C1143      C1528   1.408       .  A
C1143      O1148   1.371       .  S
C1144      C1527   1.408       .  A
C1144      C1145   1.413   1_554  A
C1145      C1146   1.406   1_565  A
C1145      H1149   1.084       .  S
C1146      C1525   1.396   1_556  A
C1146      O1150   1.370       .  S
O1148      H1152   0.991       .  S
O1150      H1151   0.992       .  S
C1153      C1154   1.436       .  A
C1153      C1158   1.435       .  A
C1153      C1162   1.575       .  S
C1154      C1155   1.435       .  A
C1154      H1159   1.075       .  S
C1155      C1156   1.419       .  A
C1155      C1198   1.551       .  S
C1156      C1157   1.422       .  A
C1156      H1160   1.083       .  S
C1157      C1158   1.430       .  A
C1157      C1261   1.544       .  S
C1158      H1161   1.079       .  S
C1162      C1163   1.438       .  A
C1162      C1167   1.442       .  A
C1163      C1164   1.427       .  A
C1163      H1168   1.078       .  S
C1164      C1165   1.408       .  A
C1164      C1209   1.530       .  S
C1165      C1166   1.414       .  A
C1165      H1169   1.084       .  S
C1166      C1167   1.437       .  A
C1166      C1263   1.546       .  S
C1167      H1170   1.079       .  S
C1171      C1172   1.453       .  A
C1171      C1176   1.437       .  A
C1172      C1173   1.445       .  A
C1172      H1177   1.078       .  S
C1173      C1174   1.407       .  A
C1173      C1199   1.554       .  S
C1174      C1175   1.405       .  A
C1174      H1178   1.084       .  S
C1175      C1176   1.426       .  A
C1175      C1262   1.532       .  S
C1176      H1179   1.077       .  S
C1180      C1181   1.433       .  A
C1180      C1185   1.445       .  A
C1181      C1182   1.434       .  A
C1181      H1186   1.078       .  S
C1182      C1183   1.409       .  A
C1182      C1210   1.542       .  S
C1183      C1184   1.409       .  A
C1183      H1187   1.084       .  S
C1184      C1185   1.440       .  A
C1184      C1264   1.540       .  S
C1185      H1188   1.076       .  S
C1189      C1190   1.421       .  A
C1189      C1525   1.487       .  S
C1190      C1191   1.425   1_554  A
C1190      H1195   1.082   1_554  S
C1191      C1198   1.489       .  S
C1192      C1193   1.384       .  A
C1192      H1196   1.080       .  S
C1193      C1194   1.382       .  A
C1193      C1240   1.449       .  S
C1194      H1197   1.085       .  S
C1199      C1204   1.525       .  S
C1200      C1205   1.430       .  A
C1200      C1513   1.488       .  S
C1201      C1202   1.370       .  A
C1201      H1206   1.067       .  S
C1202      C1203   1.381       .  A
C1202      C1296   1.458       .  S
C1203      H1207   1.079       .  S
C1204      C1205   1.439       .  A
C1205      H1208   1.074       .  S
C1209      C1213   1.499       .  S
C1210      C1222   1.496       .  S
C1211      C1212   1.437   1_554  A
C1211      C1504   1.529       .  S
C1212      C1213   1.437       .  A
C1212      H1217   1.082       .  S
C1214      C1215   1.384       .  A
C1214      H1218   1.086       .  S
C1215      C1216   1.376       .  A
C1215      C1241   1.435       .  S
C1216      H1219   1.077       .  S
C1220      C1221   1.432       .  A
C1220      C1489   1.479       .  S
C1221      C1222   1.431       .  A
C1221      H1226   1.082       .  S
C1223      C1224   1.375       .  A
C1223      H1227   1.079       .  S
C1224      C1225   1.361       .  A
C1224      C1293   1.433   1_554  S
C1225      H1228   1.080       .  S
O1229     Ni1237   1.909       .  S
O1229      C1239   1.281       .  A
O1230     Ni1237   1.883       .  S
O1230      C1240   1.278       .  A
O1231     Ni1237   1.909       .  S
O1231      C1241   1.279       .  A
O1232     Ni1237   1.925       .  S
O1232      C1242   1.281       .  A
O1233     Ni1238   1.845       .  S
O1233      C1242   1.274       .  A
O1234     Ni1238   1.866       .  S
O1234      C1241   1.269       .  A
O1235     Ni1238   1.886       .  S
O1235      C1240   1.277       .  A
O1236     Ni1238   1.877       .  S
O1236      C1239   1.279       .  A
Ni1237    Ni1238   2.393       .  S
C1239      C1267   1.476       .  S
C1242      C1245   1.463       .  S
C1243      C1244   1.407       .  A
C1243      C1248   1.419       .  A
C1243      C1477   1.467       .  S
C1244      C1245   1.373       .  A
C1244      H1249   1.083       .  S
C1245      C1246   1.384       .  A
C1246      C1247   1.396       .  A
C1246      H1250   1.076       .  S
C1247      C1248   1.418       .  A
C1247      C1261   1.505       .  S
C1248      H1251   1.081       .  S
C1252      C1253   1.432       .  A
C1252      C1257   1.404       .  A
C1252      C1465   1.487       .  S
C1253      C1254   1.420       .  A
C1253      H1258   1.082       .  S
C1254      C1255   1.370       .  A
C1254      C1262   1.481       .  S
C1255      C1256   1.382       .  A
C1255      H1259   1.088       .  S
C1256      C1257   1.373       .  A
C1256      C1294   1.437       .  S
C1257      H1260   1.075       .  S
C1261      C1262   1.396       .  D
C1263      C1269   1.525       .  S
C1263      C1264   1.399       .  D
C1264      C1276   1.479       .  S
C1265      C1266   1.407       .  A
C1265      C1270   1.425       .  A
C1265      C1456   1.487       .  S
C1266      C1267   1.380       .  A
C1266      H1271   1.075       .  S
C1267      C1268   1.384       .  A
C1268      C1269   1.426       .  A
C1268      H1272   1.077       .  S
C1269      C1270   1.430       .  A
C1270      H1273   1.075       .  S
C1274      C1275   1.417       .  A
C1274      C1279   1.410       .  A
C1274      C1444   1.491       .  S
C1275      C1276   1.414       .  A
C1275      H1280   1.082       .  S
C1276      C1277   1.385       .  A
C1277      C1278   1.388       .  A
C1277      H1281   1.082       .  S
C1278      C1279   1.390       .  A
C1278      C1295   1.461       .  S
C1279      H1282   1.083       .  S
O1283     Ni1291   1.909   1_655  S
O1283      C1293   1.276       .  A
O1284      C1294   1.282       .  A
O1285     Ni1291   1.914   1_655  S
O1285      C1295   1.281       .  A
O1286      C1296   1.280   1_556  A
O1287      C1296   1.274   1_556  A
O1288     Ni1292   1.874   1_655  S
O1288      C1295   1.276       .  A
O1289      C1294   1.267       .  A
O1290     Ni1292   1.822   1_655  S
O1290      C1293   1.267       .  A
Ni1291    Ni1292   2.372       .  S
C1297      C1298   1.445       .  A
C1297      C1302   1.438       .  A
C1297      C1306   1.580       .  S
C1298      C1299   1.438       .  A
C1298      H1303   1.078       .  S
C1299      C1300   1.411       .  A
C1299      C1342   1.544       .  S
C1300      C1301   1.405       .  A
C1300      H1304   1.084       .  S
C1301      C1302   1.429       .  A
C1301      C1371   1.530       .  S
C1302      H1305   1.078       .  S
C1306      C1307   1.440       .  A
C1306      C1311   1.436       .  A
C1307      C1308   1.437       .  A
C1307      H1312   1.075       .  S
C1308      C1309   1.421       .  A
C1308      C1373   1.558       .  S
C1309      C1310   1.425       .  A
C1309      H1313   1.083       .  S
C1310      C1311   1.431       .  A
C1310      C1426   1.545       .  S
C1311      H1314   1.079       .  S
C1315      C1316   1.441       .  A
C1315      C1320   1.433       .  A
C1316      C1317   1.441       .  A
C1316      H1321   1.076       .  S
C1317      C1318   1.406       .  A
C1317      C1343   1.539       .  S
C1318      C1319   1.406       .  A
C1318      H1322   1.084       .  S
C1319      C1320   1.431       .  A
C1319      C1372   1.531       .  S
C1320      H1323   1.078       .  S
C1324      C1325   1.447       .  A
C1324      C1329   1.438       .  A
C1325      C1326   1.440       .  A
C1325      H1330   1.078       .  S
C1326      C1327   1.405       .  A
C1326      C1374   1.546       .  S
C1327      C1328   1.404       .  A
C1327      H1331   1.084       .  S
C1328      C1329   1.428       .  A
C1328      C1425   1.533       .  S
C1329      H1332   1.078       .  S
C1333      C1334   1.412       .  A
C1333      C1338   1.410       .  A
C1333      C1480   1.482       .  S
C1334      C1335   1.423       .  A
C1334      H1339   1.068       .  S
C1335      C1336   1.424       .  A
C1335      C1342   1.524       .  S
C1336      C1337   1.395       .  A
C1336      H1340   1.080       .  S
C1337      C1338   1.385       .  A
C1337      C1437   1.476       .  S
C1338      H1341   1.083       .  S
C1342      C1343   1.398       .  D
C1343      C1346   1.478       .  S
C1344      C1345   1.419       .  A
C1344      C1349   1.413       .  A
C1344      C1468   1.493       .  S
C1345      C1346   1.416       .  A
C1345      H1350   1.082       .  S
C1346      C1347   1.383       .  A
C1347      C1348   1.384       .  A
C1347      H1351   1.081       .  S
C1348      C1349   1.390       .  A
C1348      C1405   1.462       .  S
C1349      H1352   1.084       .  S
C1353      C1354   1.426       .  A
C1353      C1516   1.483       .  S
C1354      C1355   1.430       .  A
C1354      H1359   1.082       .  S
C1355      C1372   1.489       .  S
C1356      C1357   1.379       .  A
C1356      H1360   1.083       .  S
C1357      C1358   1.370       .  A
C1357      C1403   1.417       .  S
C1358      H1361   1.071       .  S
C1362      C1367   1.432       .  A
C1362      C1528   1.498       .  S
C1363      C1364   1.381       .  A
C1363      H1368   1.080       .  S
C1364      C1365   1.384       .  A
C1364      C1439   1.445       .  S
C1365      H1369   1.087       .  S
C1366      C1367   1.429       .  A
C1366      C1371   1.496       .  S
C1367      H1370   1.082       .  S
C1373      C1379   1.500       .  S
C1374      C1386   1.523       .  S
C1375      C1380   1.429       .  A
C1375      C1501   1.498       .  S
C1376      C1377   1.381       .  A
C1376      H1381   1.083       .  S
C1377      C1378   1.382       .  A
C1377      C1438   1.443       .  S
C1378      H1382   1.077       .  S
C1379      C1380   1.433       .  A
C1380      H1383   1.082       .  S
C1384      C1385   1.430       .  A
C1384      C1492   1.482       .  S
C1385      C1386   1.430       .  A
C1385      H1390   1.077       .  S
C1387      C1388   1.385       .  A
C1387      H1391   1.079       .  S
C1388      C1389   1.379       .  A
C1388      C1406   1.468       .  S
C1389      H1392   1.081       .  S
O1393      C1403   1.264       .  A
O1394     Ni1401   1.836       .  S
O1394      C1404   1.266       .  A
O1395      C1405   1.278       .  A
O1396     Ni1401   1.859       .  S
O1396      C1406   1.274       .  A
O1397     Ni1402   1.924       .  S
O1397      C1406   1.280       .  A
O1398      C1405   1.280       .  A
O1399     Ni1402   1.923       .  S
O1399      C1404   1.280       .  A
O1400      C1403   1.280       .  A
Ni1401    Ni1402   2.367       .  S
C1404      C1409   1.441       .  S
C1407      C1408   1.409       .  A
C1407      C1412   1.427       .  A
C1407      C1441   1.482       .  S
C1408      C1409   1.375       .  A
C1408      H1413   1.080       .  S
C1409      C1410   1.384       .  A
C1410      C1411   1.367       .  A
C1410      H1414   1.088       .  S
C1411      C1412   1.417       .  A
C1411      C1425   1.474       .  S
C1412      H1415   1.082       .  S
C1416      C1417   1.415       .  A
C1416      C1421   1.411       .  A
C1416      C1453   1.468       .  S
C1417      C1418   1.413       .  A
C1417      H1422   1.082       .  S
C1418      C1419   1.390       .  A
C1418      C1426   1.489       .  S
C1419      C1420   1.381       .  A
C1419      H1423   1.081       .  S
C1420      C1421   1.377       .  A
C1420      C1440   1.466       .  S
C1421      H1424   1.082       .  S
C1425      C1426   1.395       .  D
O1427     Ni1435   1.861       .  S
O1427      C1437   1.275       .  A
O1428     Ni1435   1.877       .  S
O1428      C1438   1.272       .  A
O1429     Ni1435   1.870       .  S
O1429      C1439   1.275       .  A
O1430     Ni1435   1.852       .  S
O1430      C1440   1.274       .  A
O1431     Ni1436   1.930       .  S
O1431      C1440   1.281       .  A
O1432     Ni1436   1.909       .  S
O1432      C1439   1.277       .  A
O1433     Ni1436   1.885       .  S
O1433      C1438   1.280       .  A
O1434     Ni1436   1.926       .  S
O1434      C1437   1.284       .  A
Ni1435    Ni1436   2.390       .  S
C1441      C1442   1.408       .  A
C1441      C1446   1.396       .  A
C1442      C1443   1.404       .  A
C1442      H1447   1.078       .  S
C1443      C1444   1.408       .  A
C1443      O1448   1.372       .  S
C1444      C1445   1.410       .  A
C1445      C1446   1.400       .  A
C1445      H1449   1.082       .  S
C1446      O1450   1.367       .  S
O1448      H1452   0.992       .  S
O1450      H1451   0.992       .  S
C1453      C1454   1.396       .  A
C1453      C1458   1.409       .  A
C1454      C1455   1.399       .  A
C1454      H1459   1.085       .  S
C1455      C1456   1.421   1_565  A
C1455      O1460   1.373       .  S
C1456      C1457   1.405       .  A
C1457      C1458   1.407   1_545  A
C1457      H1461   1.083       .  S
C1458      O1462   1.367       .  S
O1460      H1464   0.992       .  S
O1462      H1463   0.991       .  S
C1465      C1466   1.414       .  A
C1465      C1470   1.397       .  A
C1466      C1467   1.409       .  A
C1466      H1471   1.083       .  S
C1467      C1468   1.405       .  A
C1467      O1472   1.370       .  S
C1468      C1469   1.405       .  A
C1469      C1470   1.399       .  A
C1469      H1473   1.083       .  S
C1470      O1474   1.367       .  S
O1472      H1476   0.991       .  S
O1474      H1475   0.991       .  S
C1477      C1478   1.409       .  A
C1477      C1482   1.405       .  A
C1478      C1479   1.404   1_545  A
C1478      H1483   1.081       .  S
C1479      C1480   1.406       .  A
C1479      O1484   1.372       .  S
C1480      C1481   1.406       .  A
C1481      C1482   1.397   1_565  A
C1481      H1485   1.081       .  S
C1482      O1486   1.375       .  S
O1484      H1488   0.992       .  S
O1486      H1487   0.990       .  S
C1489      C1490   1.411       .  A
C1490      C1491   1.403       .  A
C1490      H1495   1.075       .  S
C1491      O1496   1.368       .  S
C1492      C1493   1.409       .  A
C1493      C1494   1.408       .  A
C1493      H1497   1.078       .  S
C1494      O1498   1.372       .  S
O1496      H1500   0.991       .  S
O1498      H1499   0.992       .  S
C1501      C1502   1.384       .  A
C1502      C1503   1.393   1_565  A
C1502      H1507   1.082       .  S
C1503      O1508   1.365   1_545  S
C1504      C1505   1.410   1_554  A
C1505      C1506   1.433   1_545  A
C1505      H1509   1.082       .  S
C1506      O1510   1.370       .  S
O1508      H1512   0.992       .  S
O1510      H1511   0.989       .  S
C1513      C1518   1.412       .  A
C1514      C1515   1.411       .  A
C1514      H1519   1.079       .  S
C1515      C1516   1.413       .  A
C1515      O1520   1.369       .  S
C1517      C1518   1.406       .  A
C1517      H1521   1.083       .  S
C1518      O1522   1.371       .  S
O1520      H1524   0.993       .  S
O1522      H1523   0.992       .  S
C1525      C1526   1.414       .  A
C1526      C1527   1.411   1_545  A
C1526      H1531   1.080       .  S
C1527      O1532   1.371       .  S
C1528      C1529   1.413       .  A
C1529      C1530   1.406   1_565  A
C1529      H1533   1.084       .  S
C1530      O1534   1.370       .  S
O1532      H1536   0.991       .  S
O1534      H1535   0.992       .  S
