geometry optimzed in LAMMPS
_audit_creation_date              2020-11-30 
_audit_creation_method            'lammps2cif' 
_symmetry_space_group_name_H-M    'P1' 
_symmetry_Int_Tables_number       1 
_symmetry_cell_setting            triclinic 
loop_ 
_symmetry_equiv_pos_as_xyz 
  x,y,z 
_cell_length_a                    56.84089716 
_cell_length_b                    30.62283586671687 
_cell_length_c                    29.377180948090896 
_cell_angle_alpha                 89.9490845273983 
_cell_angle_beta                  89.2089165877348 
_cell_angle_gamma                 89.91545724821314 
loop_ 
_atom_site_label 
_atom_site_type_symbol 
_atom_site_fract_x 
_atom_site_fract_y 
_atom_site_fract_z 
_atom_site_charge 
O1          O  0.90912979  0.45430520  0.44930529    -0.56900
C2          C  0.90669738  0.43218117  0.59220752     0.75700
O3          O  0.86452651  0.34986156  0.49749184    -0.58000
C4          C  0.90846710  0.43021742  0.41420507     0.75700
C5          C  0.93869588  0.33067694  0.50505711     0.78100
Cd6        Cd  0.90106070  0.39368948  0.50352620     1.37500
O7          O  0.91208463  0.45325723  0.55635000    -0.56900
O8          O  0.94199781  0.37122898  0.49975332    -0.55700
C9          C  0.85083790  0.38245617  0.50151013     0.78100
O10         O  0.91747955  0.31853629  0.51025569    -0.58100
O11         O  0.89909260  0.39379363  0.58643544    -0.56500
O12         O  0.90430954  0.39014699  0.42086818    -0.56500
O13         O  0.86050343  0.41927756  0.50640151    -0.55700
O14         O  0.61541664  0.28028933  0.55574632    -0.56900
C15         C  0.62252954  0.29777039  0.41089597     0.75700
O16         O  0.60326077  0.41040808  0.49658732    -0.58000
C17         C  0.61844067  0.30514956  0.58977433     0.75700
C18         C  0.67345302  0.35702974  0.50152247     0.78100
Cd19       Cd  0.62372950  0.33870327  0.49887481     1.37500
O20         O  0.61688914  0.27637296  0.44643981    -0.56900
O21         O  0.66489227  0.31926838  0.50733125    -0.55700
C22         C  0.58277095  0.39404957  0.49475573     0.78100
O23         O  0.65875795  0.38756456  0.49469480    -0.58100
O24         O  0.62854813  0.33707648  0.41685506    -0.56500
O25         O  0.62298318  0.34470471  0.58096146    -0.56500
O26         O  0.58172490  0.35282708  0.49477905    -0.55700
O27         O  0.91114540  0.02223511  0.05741657    -0.56900
C28         C  0.91203443  0.04867615  0.91395687     0.75700
O29         O  0.87136029  0.13320223  0.00608566    -0.58000
C30         C  0.91162562  0.04611773  0.09268549     0.75700
C31         C  0.94766233  0.14048620  0.00405059     0.78100
Cd32       Cd  0.90681544  0.08467933  0.00382657     1.37500
O33         O  0.91521351  0.02501878  0.94887359    -0.56900
O34         O  0.94894375  0.09925644  0.00259762    -0.55700
C35         C  0.85682425  0.10212260  0.00131010     0.78100
O36         O  0.92704386  0.15663782  0.00438136    -0.58100
O37         O  0.90725112  0.08844172  0.92135106    -0.56500
O38         O  0.90961874  0.08680562  0.08645547    -0.56500
O39         O  0.86552887  0.06418054  0.99875417    -0.55700
O40         O  0.62225797  0.20553160  0.05486453    -0.56900
C41         C  0.62395707  0.18450830  0.90927119     0.75700
O42         O  0.66513444  0.09997233  0.00059703    -0.58000
C43         C  0.62612162  0.18116229  0.08901563     0.75700
C44         C  0.58968154  0.08830080  0.99725239     0.78100
Cd45       Cd  0.62936042  0.14664251  0.99805830     1.37500
O46         O  0.62033024  0.20752597  0.94467711    -0.56900
O47         O  0.58765680  0.12874254  0.00527042    -0.55700
C48         C  0.67946637  0.13140556  0.99525941     0.78100
O49         O  0.61041595  0.07416390  0.99011320    -0.58100
O50         O  0.62936363  0.14498023  0.91586082    -0.56500
O51         O  0.63081899  0.14161670  0.08041023    -0.56500
O52         O  0.67045311  0.16898557  0.99114487    -0.55700
O53         O  0.40788679  0.20552060  0.43633928    -0.56900
C54         C  0.40769320  0.18318029  0.58182368     0.75700
O55         O  0.36408033  0.09964399  0.49156221    -0.58000
C56         C  0.40253630  0.18226200  0.40220162     0.75700
C57         C  0.43835859  0.08726838  0.48899503     0.78100
Cd58       Cd  0.39950709  0.14669022  0.49315696     1.37500
O59         O  0.40971644  0.20674161  0.54636048    -0.56900
O60         O  0.44050640  0.12780023  0.48196111    -0.55700
C61         C  0.34979304  0.13061123  0.49990919     0.78100
O62         O  0.41777605  0.07350177  0.49813673    -0.58100
O63         O  0.40225577  0.14364170  0.57557960    -0.56500
O64         O  0.39565128  0.14391566  0.41103124    -0.56500
O65         O  0.35868737  0.16815868  0.50466894    -0.55700
O66         O  0.11237263  0.02043738  0.45524228    -0.56900
C67         C  0.11820579  0.04506852  0.59926045     0.75700
O68         O  0.15924136  0.12506991  0.50314560    -0.58000
C69         C  0.11759621  0.04256362  0.41994166     0.75700
C70         C  0.08339231  0.13794337  0.50918347     0.78100
Cd71       Cd  0.12295529  0.07968918  0.50894777     1.37500
O72         O  0.11845296  0.01971768  0.56504966    -0.56900
O73         O  0.08130939  0.09685302  0.50679781    -0.55700
C74         C  0.17306792  0.09284225  0.50834861     0.78100
O75         O  0.10422641  0.15273042  0.51137877    -0.58100
O76         O  0.11948774  0.08556416  0.59103702    -0.56500
O77         O  0.12498821  0.08092138  0.42677198    -0.56500
O78         O  0.16346973  0.05594246  0.51348662    -0.55700
O79         O  0.41498125  0.27667009  0.04465665    -0.56900
C80         C  0.41409347  0.30409491  0.89939368     0.75700
O81         O  0.36943748  0.38025575  0.98916091    -0.58000
C82         C  0.40874707  0.29831891  0.07968359     0.75700
C83         C  0.44471357  0.39707180  0.99447587     0.78100
Cd84       Cd  0.40619108  0.33654407  0.99028526     1.37500
O85         O  0.41729290  0.27951777  0.93367245    -0.56900
O86         O  0.44749335  0.35606977  0.99494069    -0.55700
C87         C  0.35603643  0.34733390  0.98513275     0.78100
O88         O  0.42363194  0.41069004  0.99260278    -0.58100
O89         O  0.40765496  0.34276495  0.90805107    -0.56500
O90         O  0.40148680  0.33680907  0.07272758    -0.56500
O91         O  0.36602349  0.31039672  0.98394000    -0.55700
O92         O  0.11937854  0.45228136  0.06382996    -0.56900
C93         C  0.12006168  0.43767748  0.92238348     0.75700
O94         O  0.16542117  0.34839887  0.00590271    -0.58000
C95         C  0.12546236  0.42955076  0.09785549     0.75700
C96         C  0.09159699  0.33430284  0.00981244     0.78100
Cd97       Cd  0.12974291  0.39542128  0.00708977     1.37500
O98         O  0.12466330  0.46011397  0.95742562    -0.56900
O99         O  0.08934416  0.37392595  0.02120799    -0.55700
C100        C  0.17938397  0.37941324  0.99614660     0.78100
O101        O  0.11198878  0.32218286  0.99684445    -0.58100
O102        O  0.11944857  0.39670005  0.92737765    -0.56500
O103        O  0.13368113  0.39202476  0.08922109    -0.56500
O104        O  0.17032271  0.41690689  0.99230459    -0.55700
C105        C  0.29471535  0.39432244  0.00027475    -0.01100
C106        C  0.28046669  0.36020451  0.98413357     0.07500
C107        C  0.29108259  0.32241193  0.96658358    -0.07100
C108        C  0.31559151  0.31778346  0.96566494     0.04900
C109        C  0.33002099  0.35157891  0.98282523    -0.14300
C110        C  0.31925174  0.38985267  0.99941689    -0.07600
C111        C  0.25442317  0.36317226  0.98579235     0.05900
C112        C  0.24310897  0.39356097  0.95789541    -0.08700
C113        C  0.21864128  0.39861599  0.95989387     0.00900
C114        C  0.20504105  0.37273607  0.99027490     0.00700
C115        C  0.21635821  0.34129492  0.01706869    -0.12300
C116        C  0.24087444  0.33656668  0.01526718     0.01200
C117        C  0.20794982  0.42987167  0.92962510     0.40500
C118        C  0.25189200  0.30561431  0.04536440     0.37100
C119        C  0.28446935  0.43355198  0.01929957     0.36900
C120        C  0.32527275  0.27834188  0.94598801     0.37600
N121        N  0.19938593  0.45483886  0.90529848    -0.43200
N122        N  0.26084931  0.28098175  0.06950611    -0.43600
N123        N  0.33292482  0.24670823  0.93009029    -0.41000
N124        N  0.27615853  0.46490048  0.03455448    -0.42400
H125        H  0.32998036  0.41601158  0.01277062     0.13800
H126        H  0.28011850  0.29638748  0.95359632     0.10200
H127        H  0.25348716  0.41357940  0.93470159     0.11300
H128        H  0.20612569  0.32142275  0.04062140     0.17100
C129        C  0.13017437  0.50948143  0.81963059    -0.01100
C130        C  0.11514477  0.49025014  0.78755334     0.07500
C131        C  0.10049564  0.45568958  0.80089556    -0.07100
C132        C  0.10106702  0.43928149  0.84530075     0.04900
C133        C  0.11655503  0.45769493  0.87723951    -0.14300
C134        C  0.13060395  0.49338496  0.86425864    -0.07600
C135        C  0.11519892  0.00417906  0.73930642     0.05900
C136        C  0.12558761  0.47674926  0.70653571    -0.08700
C137        C  0.12646102  0.48884189  0.66055284     0.00900
C138        C  0.11662360  0.02908928  0.64679108     0.00700
C139        C  0.10597991  0.05621035  0.67978530    -0.12300
C140        C  0.10508332  0.04398445  0.72567340     0.01200
C141        C  0.13866019  0.46041944  0.62891993     0.40500
C142        C  0.09341234  0.07239258  0.75807081     0.37100
C143        C  0.14615330  0.04414439  0.80688054     0.36900
C144        C  0.08541191  0.40384056  0.85725261     0.37600
N145        N  0.14857127  0.43753310  0.60384836    -0.43200
N146        N  0.08399848  0.09509145  0.78402108    -0.43600
N147        N  0.07282275  0.37550402  0.86679440    -0.41000
N148        N  0.15903898  0.07180544  0.79667172    -0.42400
H149        H  0.14275280  0.50736534  0.88836583     0.13800
H150        H  0.08881373  0.44112909  0.77628984     0.10200
H151        H  0.13342477  0.44611382  0.71713333     0.11300
H152        H  0.09825940  0.08709358  0.66967929     0.17100
C153        C  0.12385385  0.03729671  0.29170554    -0.01100
C154        C  0.11519407  0.99541709  0.28168253     0.07500
C155        C  0.10667632  0.46889014  0.31716451    -0.07100
C156        C  0.10678081  0.98342485  0.36243156     0.04900
C157        C  0.11574794  0.02535469  0.37275145    -0.14300
C158        C  0.12392907  0.05192440  0.33671894    -0.07600
C159        C  0.11658635  0.47760464  0.23484722     0.05900
C160        C  0.13257456  0.44381031  0.22580496    -0.08700
C161        C  0.13577572  0.42764210  0.18165227     0.00900
C162        C  0.12279659  0.44564047  0.14529029     0.00700
C163        C  0.10649857  0.47915879  0.15468973    -0.12300
C164        C  0.10316349  0.99490458  0.19908456     0.01200
C165        C  0.15304758  0.39354568  0.17481810     0.40500
C166        C  0.08558299  0.02814908  0.20740000     0.37100
C167        C  0.13373508  0.06512099  0.25661851     0.36900
C168        C  0.09772340  0.95437135  0.39716364     0.37600
N169        N  0.16688850  0.36619661  0.16951226    -0.43200
N170        N  0.07145205  0.05468662  0.21419273    -0.43600
N171        N  0.09041197  0.93087310  0.42478580    -0.41000
N172        N  0.14166405  0.08738406  0.22851206    -0.42400
H173        H  0.13095892  0.08410159  0.34365714     0.13800
H174        H  0.10014394  0.43650220  0.30943018     0.10200
H175        H  0.14294425  0.43057945  0.25333456     0.11300
H176        H  0.09608621  0.49272236  0.12742615     0.17100
C177        C  0.42903701  0.22942134  0.80000155    -0.01100
C178        C  0.42157145  0.25417787  0.76232537     0.07500
C179        C  0.41289197  0.29645476  0.76950905    -0.07100
C180        C  0.41069185  0.31374968  0.81345292     0.04900
C181        C  0.41741416  0.28844014  0.85169397    -0.14300
C182        C  0.42696472  0.24662906  0.84409080    -0.07600
C183        C  0.41974393  0.23486650  0.71609427     0.05900
C184        C  0.40445659  0.19953065  0.71028723    -0.08700
C185        C  0.40034380  0.18218146  0.66713612     0.00900
C186        C  0.41155288  0.20058077  0.62827862     0.00700
C187        C  0.42694484  0.23596429  0.63413616    -0.12300
C188        C  0.43120844  0.25300102  0.67758426     0.01200
C189        C  0.38369398  0.14676640  0.66395544     0.40500
C190        C  0.44774876  0.28843163  0.68189786     0.37100
C191        C  0.43866961  0.18609789  0.79420994     0.36900
C192        C  0.40045698  0.35677499  0.81778790     0.37600
N193        N  0.37030309  0.11843050  0.66185956    -0.43200
N194        N  0.46109767  0.31671419  0.68518982    -0.43600
N195        N  0.39216678  0.39120283  0.82095840    -0.41000
N196        N  0.44635155  0.15135372  0.78948827    -0.42400
H197        H  0.43249152  0.22690846  0.87270174     0.13800
H198        H  0.40682221  0.31537013  0.74069799     0.10200
H199        H  0.39521484  0.18606806  0.73964973     0.11300
H200        H  0.43588788  0.25004152  0.60477574     0.17100
C201        C  0.41783389  0.25541344  0.30146328    -0.01100
C202        C  0.40898248  0.23146923  0.26450400     0.07500
C203        C  0.39819820  0.19113824  0.27262800    -0.07100
C204        C  0.39564083  0.17471807  0.31692289     0.04900
C205        C  0.40446351  0.19861741  0.35443209    -0.14300
C206        C  0.41562583  0.23886106  0.34586872    -0.07600
C207        C  0.40932228  0.24908253  0.21738672     0.05900
C208        C  0.42414028  0.23009308  0.18430449    -0.08700
C209        C  0.42440705  0.24544220  0.13923189     0.00900
C210        C  0.40940253  0.28021139  0.12663040     0.00700
C211        C  0.39459558  0.29899678  0.16005420    -0.12300
C212        C  0.39437400  0.28365844  0.20492037     0.01200
C213        C  0.44083259  0.22598419  0.10726418     0.40500
C214        C  0.37827166  0.30319633  0.23748984     0.37100
C215        C  0.42908639  0.29717456  0.29448560     0.36900
C216        C  0.38309355  0.13403298  0.32245754     0.37600
N217        N  0.45408794  0.21050070  0.08172100    -0.43200
N218        N  0.36543763  0.31869168  0.26380762    -0.43600
N219        N  0.37290496  0.10155196  0.32669235    -0.41000
N220        N  0.43795971  0.33074158  0.28865081    -0.42400
H221        H  0.42259562  0.25761745  0.37390080     0.13800
H222        H  0.39111846  0.17298021  0.24423848     0.10200
H223        H  0.43565826  0.20344464  0.19386928     0.11300
H224        H  0.38286530  0.32550033  0.15103112     0.17100
C225        C  0.23383078  0.13924530  0.48433844    -0.01100
C226        C  0.24862226  0.10710848  0.50318922     0.07500
C227        C  0.23852577  0.07054497  0.52433587    -0.07100
C228        C  0.21408038  0.06537376  0.52673804     0.04900
C229        C  0.19910551  0.09757343  0.50788465    -0.14300
C230        C  0.20932185  0.13442087  0.48705319    -0.07600
C231        C  0.27463780  0.11185082  0.50279085     0.05900
C232        C  0.28459968  0.14651363  0.52689659    -0.08700
C233        C  0.30898270  0.15262566  0.52736594     0.00900
C234        C  0.32398394  0.12367141  0.50305856     0.00700
C235        C  0.31399215  0.08816560  0.48004826    -0.12300
C236        C  0.28955242  0.08207943  0.47972035     0.01200
C237        C  0.31804714  0.18817005  0.55420378     0.40500
C238        C  0.28017468  0.04580572  0.45442014     0.37100
C239        C  0.24346044  0.17675465  0.46085270     0.36900
C240        C  0.20503215  0.02707229  0.54971674     0.37600
N241        N  0.32530648  0.21657513  0.57582201    -0.43200
N242        N  0.27272012  0.01665560  0.43417054    -0.43600
N243        N  0.19783539  0.49631049  0.56806989    -0.41000
N244        N  0.25125623  0.20669108  0.44193137    -0.42400
H245        H  0.19816737  0.15915405  0.47202579     0.13800
H246        H  0.24984590  0.04608109  0.53942409     0.10200
H247        H  0.27321840  0.16881764  0.54563238     0.11300
H248        H  0.32524754  0.06564844  0.46134069     0.17100
C249        C  0.50702807  0.43570819  0.01358426    -0.01100
C250        C  0.50627863  0.47931495  0.99828885     0.07500
C251        C  0.48499484  0.49632060  0.98223003    -0.07100
C252        C  0.46461020  0.47061677  0.98112818     0.04900
C253        C  0.46535846  0.42673785  0.99617391    -0.14300
C254        C  0.48674625  0.40992226  0.01229149    -0.07600
C255        C  0.52758764  0.00745359  0.99824806     0.05900
C256        C  0.54707009  0.49577870  0.97095867    -0.08700
C257        C  0.56745554  0.02151614  0.96982401     0.00900
C258        C  0.56867760  0.05957041  0.99690408     0.00700
C259        C  0.54900610  0.07143461  0.02370641    -0.12300
C260        C  0.52859288  0.04590979  0.02449652     0.01200
C261        C  0.58618891  0.00946138  0.93859586     0.40500
C262        C  0.50901394  0.05957102  0.05294524     0.37100
C263        C  0.52829423  0.41695733  0.03161237     0.36900
C264        C  0.44353453  0.48978025  0.96283571     0.37600
N265        N  0.60104338  0.99990856  0.91315115    -0.43200
N266        N  0.49326843  0.07063626  0.07553355    -0.43600
N267        N  0.42668765  0.00524362  0.94806040    -0.41000
N268        N  0.54534146  0.40196465  0.04605210    -0.42400
H269        H  0.48765559  0.37644636  0.02425050     0.13800
H270        H  0.48440221  0.02973128  0.96997683     0.10200
H271        H  0.54616791  0.46677232  0.94987284     0.11300
H272        H  0.54960884  0.10069614  0.04444545     0.17100
C273        C  0.98717280  0.24005645  0.99413921    -0.01100
C274        C  0.00944668  0.22274132  0.00483511     0.07500
C275        C  0.01133217  0.17844256  0.01610213    -0.07100
C276        C  0.99156204  0.15120161  0.01650997     0.04900
C277        C  0.96916970  0.16822715  0.00508253    -0.14300
C278        C  0.96733886  0.21284972  0.99429291    -0.07600
C279        C  0.03088305  0.25048191  0.00608753     0.05900
C280        C  0.03212291  0.28381680  0.03863120    -0.08700
C281        C  0.05202536  0.31049464  0.04137828     0.00900
C282        C  0.07115930  0.30431715  0.01072448     0.00700
C283        C  0.07018655  0.27010820  0.97900028    -0.12300
C284        C  0.05028831  0.24324166  0.97650681     0.01200
C285        C  0.05269742  0.34279054  0.07715915     0.40500
C286        C  0.04993472  0.20916259  0.94259981     0.37100
C287        C  0.98430051  0.28545563  0.98207614     0.36900
C288        C  0.99487333  0.10637234  0.03034747     0.37600
N289        N  0.05338800  0.36851324  0.10595112    -0.43200
N290        N  0.04966923  0.18175815  0.91551395    -0.43600
N291        N  0.99765065  0.07053181  0.04162416    -0.41000
N292        N  0.98194729  0.32184298  0.97246246    -0.42400
H293        H  0.95039357  0.22654211  0.98550018     0.13800
H294        H  0.02834535  0.16522130  0.02525966     0.10200
H295        H  0.01754154  0.28868587  0.06230278     0.11300
H296        H  0.08474639  0.26499501  0.95534620     0.17100
C297        C  0.79331353  0.08118174  0.97079252    -0.01100
C298        C  0.78136582  0.11593339  0.99241934     0.07500
C299        C  0.79442066  0.14730199  0.01609948    -0.07100
C300        C  0.81901203  0.14408030  0.01902560     0.04900
C301        C  0.83096819  0.10875209  0.99806690    -0.14300
C302        C  0.81780827  0.07774528  0.97394387    -0.07600
C303        C  0.75523136  0.11941408  0.99167999     0.05900
C304        C  0.74156508  0.08703415  0.01317488    -0.08700
C305        C  0.71690440  0.08954749  0.01407239     0.00900
C306        C  0.70545187  0.12544958  0.99360683     0.00700
C307        C  0.71924121  0.15752082  0.97165470    -0.12300
C308        C  0.74383928  0.15456478  0.97018504     0.01200
C309        C  0.70395460  0.05556355  0.03746423     0.40500
C310        C  0.75700318  0.18720976  0.94517033     0.37100
C311        C  0.78082015  0.04917707  0.94437482     0.36900
C312        C  0.83131610  0.17625173  0.04550266     0.37600
N313        N  0.69358812  0.02826807  0.05616938    -0.43200
N314        N  0.76755872  0.21318181  0.92485959    -0.43600
N315        N  0.84116282  0.20197004  0.06686977    -0.41000
N316        N  0.77074269  0.52367949  0.92313250    -0.42400
H317        H  0.82671215  0.05072080  0.95716188     0.13800
H318        H  0.78529074  0.17397490  0.03304316     0.10200
H319        H  0.75025371  0.05986776  0.02972215     0.11300
H320        H  0.71076949  0.18491221  0.95509637     0.17100
C321        C  0.54311858  0.49365798  0.50191249    -0.01100
C322        C  0.52080328  0.47603395  0.49227024     0.07500
C323        C  0.51892284  0.43132938  0.48287703    -0.07100
C324        C  0.53868317  0.40401578  0.48351794     0.04900
C325        C  0.56116962  0.42156824  0.49313632    -0.14300
C326        C  0.56299591  0.46653561  0.50205938    -0.07600
C327        C  0.49926855  0.00370214  0.49109117     0.05900
C328        C  0.49858163  0.03931963  0.46105757    -0.08700
C329        C  0.47890156  0.06674680  0.45954423     0.00900
C330        C  0.45904444  0.05792291  0.48759765     0.00700
C331        C  0.45945187  0.02154250  0.51665079    -0.07500
C332        C  0.47943704  0.99488688  0.51911059     0.01200
C333        C  0.47951332  0.10336990  0.42850078     0.40500
C334        C  0.47958059  0.46004398  0.55224945     0.37100
C335        C  0.54597890  0.03926898  0.51295505     0.36900
C336        C  0.53512932  0.35831227  0.47366694     0.37600
N337        N  0.47997768  0.13287927  0.40385879    -0.43200
N338        N  0.47971523  0.43225622  0.57896662    -0.43600
N339        N  0.53216741  0.32170333  0.46586686    -0.41000
N340        N  0.54820242  0.07586094  0.52168629    -0.42400
H341        H  0.57997045  0.48058369  0.50983809     0.13800
H342        H  0.50187083  0.41770601  0.47482133     0.10200
H343        H  0.51358558  0.04588490  0.43889751     0.11300
H344        H  0.44445566  0.01485721  0.53879086     0.17100
C345        C  0.60367437  0.23360674  0.69180313    -0.01100
C346        C  0.61552990  0.25517753  0.72709660     0.07500
C347        C  0.62772752  0.29382999  0.71752161    -0.07100
C348        C  0.62860445  0.31094246  0.67337851     0.04900
C349        C  0.61715586  0.28896348  0.63745835    -0.14300
C350        C  0.60465685  0.25042435  0.64736805    -0.07600
C351        C  0.61670461  0.23679001  0.77374630     0.05900
C352        C  0.63035197  0.19937157  0.78079839    -0.08700
C353        C  0.63320685  0.18220474  0.82453058     0.00900
C354        C  0.62195626  0.20240549  0.86244130     0.00700
C355        C  0.60838518  0.24013509  0.85519782    -0.12300
C356        C  0.60574333  0.25741099  0.81132302     0.01200
C357        C  0.64863736  0.14499824  0.82940957     0.40500
C358        C  0.59149799  0.29600633  0.80545375     0.37100
C359        C  0.59010874  0.19463447  0.70070877     0.36900
C360        C  0.64222656  0.35015346  0.66595159     0.37600
N361        N  0.66108257  0.11531930  0.83332129    -0.43200
N362        N  0.58009987  0.32695678  0.80058759    -0.43600
N363        N  0.65313006  0.38158436  0.66000459    -0.41000
N364        N  0.57914899  0.16354068  0.70807528    -0.42400
H365        H  0.59555898  0.23347055  0.62043138     0.13800
H366        H  0.63702409  0.31023174  0.74460230     0.10200
H367        H  0.63923194  0.18406453  0.75201881     0.11300
H368        H  0.59964731  0.25599415  0.88377600     0.17100
C369        C  0.61188741  0.25379152  0.19034178    -0.01100
C370        C  0.62246113  0.23091470  0.22640242     0.07500
C371        C  0.63423703  0.19166333  0.21735473    -0.07100
C372        C  0.63588608  0.17511714  0.17303121     0.04900
C373        C  0.62517932  0.19777829  0.13658415    -0.14300
C374        C  0.61331170  0.23715686  0.14593331    -0.07600
C375        C  0.62239541  0.24809404  0.27359693     0.05900
C376        C  0.60923775  0.22656226  0.30756167    -0.08700
C377        C  0.60909483  0.24155596  0.35270832     0.00900
C378        C  0.62243982  0.27878628  0.36437796     0.00700
C379        C  0.63585915  0.29971543  0.33019350    -0.12300
C380        C  0.63602214  0.28463710  0.28530717     0.01200
C381        C  0.59455249  0.21890918  0.38573613     0.40500
C382        C  0.65069987  0.30664549  0.25199324     0.37100
C383        C  0.59935377  0.29419374  0.19818919     0.36900
C384        C  0.64961606  0.13589725  0.16606719     0.37600
N385        N  0.58284186  0.20071975  0.41210748    -0.43200
N386        N  0.66245655  0.32426128  0.22528295    -0.43600
N387        N  0.66075579  0.10461451  0.16064986    -0.41000
N388        N  0.58935337  0.32663614  0.20440503    -0.42400
H389        H  0.60498783  0.25492715  0.11855537     0.13800
H390        H  0.64267054  0.17440500  0.24498873     0.10200
H391        H  0.59889193  0.19817109  0.29862143     0.11300
H392        H  0.64645547  0.32795059  0.33854822     0.17100
C393        C  0.02114394  0.17549770  0.48722646    -0.01100
C394        C  0.02084498  0.21784935  0.50601983     0.07500
C395        C  0.04126193  0.23386724  0.52660530    -0.07100
C396        C  0.06188846  0.20876427  0.52802389     0.04900
C397        C  0.06227182  0.16649710  0.50872152    -0.14300
C398        C  0.04167704  0.15032027  0.48882987    -0.07600
C399        C  0.99952297  0.24607600  0.50436944     0.05900
C400        C  0.97850224  0.23197493  0.52533819    -0.08700
C401        C  0.95823363  0.25820946  0.52525454     0.00900
C402        C  0.95894710  0.29991662  0.50451900     0.00700
C403        C  0.97997510  0.31360596  0.48316079    -0.12300
C404        C  0.00003591  0.28713365  0.48263667     0.01200
C405        C  0.93731497  0.24189045  0.54784766     0.40500
C406        C  0.02079697  0.30248835  0.45868858     0.37100
C407        C  0.00081879  0.15749839  0.46507065     0.36900
C408        C  0.08200238  0.22663994  0.55095526     0.37600
N409        N  0.92060337  0.22852325  0.56595113    -0.43200
N410        N  0.03742142  0.31479665  0.43948230    -0.43600
N411        N  0.09806293  0.24100939  0.56951131    -0.41000
N412        N  0.98453843  0.14293449  0.44741224    -0.42400
H413        H  0.04166661  0.11796389  0.47382300     0.13800
H414        H  0.04102001  0.26612658  0.54184882     0.10200
H415        H  0.97801798  0.20049611  0.54229716     0.11300
H416        H  0.98075857  0.34516196  0.46639627     0.17100
C417        C  0.90263011  0.04211923  0.78688197    -0.01100
C418        C  0.91213779  0.50094766  0.77575849     0.07500
C419        C  0.92233953  0.47557487  0.81007562    -0.07100
C420        C  0.92279901  0.49024525  0.85525506     0.04900
C421        C  0.91303703  0.03142431  0.86665671    -0.14300
C422        C  0.90324277  0.05700689  0.83183166    -0.07600
C423        C  0.91088910  0.48319024  0.72883225     0.05900
C424        C  0.92312440  0.00418221  0.69326047    -0.08700
C425        C  0.92212629  0.48847573  0.64848371     0.00900
C426        C  0.90865560  0.45083987  0.63874736     0.00700
C427        C  0.89650257  0.42994736  0.67469237    -0.12300
C428        C  0.89744912  0.44579407  0.71925273     0.01200
C429        C  0.93556560  0.01109416  0.61374673     0.40500
C430        C  0.88394243  0.42383809  0.75442034     0.37100
C431        C  0.89132764  0.06895639  0.75311659     0.36900
C432        C  0.93355887  0.46240109  0.88875837     0.37600
N433        N  0.94640739  0.02930125  0.58603980    -0.43200
N434        N  0.87313413  0.40633336  0.78266423    -0.43600
N435        N  0.94220609  0.43988489  0.91542778    -0.41000
N436        N  0.88224326  0.09045430  0.72609985    -0.42400
H437        H  0.89549135  0.08851842  0.83980816     0.13800
H438        H  0.92980163  0.44395232  0.80150217     0.10200
H439        H  0.93358811  0.03286126  0.70061988     0.11300
H440        H  0.88591118  0.40129364  0.66797592     0.17100
C441        C  0.90387749  0.00575200  0.31275358    -0.01100
C442        C  0.91388946  0.48027482  0.27743085     0.07500
C443        C  0.92336558  0.43920538  0.28783614    -0.07100
C444        C  0.92234175  0.42276448  0.33233624     0.04900
C445        C  0.91178487  0.44780884  0.36755982    -0.14300
C446        C  0.90307988  0.48956477  0.35740209    -0.07600
C447        C  0.91419567  0.49552688  0.22931651     0.05900
C448        C  0.92705343  0.03302951  0.21756588    -0.08700
C449        C  0.92685673  0.04949385  0.17306019     0.00900
C450        C  0.91390395  0.02781612  0.13910014     0.00700
C451        C  0.90170260  0.48944897  0.15053160    -0.12300
C452        C  0.90148405  0.47357466  0.19532475     0.01200
C453        C  0.94036141  0.08834035  0.16303128     0.40500
C454        C  0.88698296  0.43624130  0.20624669     0.37100
C455        C  0.89327686  0.04765702  0.30359259     0.36900
C456        C  0.93271354  0.38052640  0.34103303     0.37600
N457        N  0.95115200  0.11948925  0.15495912    -0.43200
N458        N  0.87523772  0.40654538  0.21524845    -0.43600
N459        N  0.94106740  0.34673492  0.34805253    -0.41000
N460        N  0.88472171  0.08117650  0.29614406    -0.42400
H461        H  0.89482021  0.00894615  0.38407434     0.13800
H462        H  0.93141491  0.41978966  0.26094647     0.10200
H463        H  0.93705201  0.04976375  0.24343954     0.11300
H464        H  0.89147130  0.47290221  0.12487984     0.17100
C465        C  0.78686903  0.40725596  0.52740293    -0.01100
C466        C  0.77513028  0.37451260  0.50292836     0.07500
C467        C  0.78840243  0.34397236  0.47778035    -0.07100
C468        C  0.81306570  0.34553084  0.47695774     0.04900
C469        C  0.82484473  0.37851478  0.50131202    -0.14300
C470        C  0.81146258  0.40928654  0.52602262    -0.07600
C471        C  0.74905248  0.37091200  0.50395739     0.05900
C472        C  0.73536842  0.40385664  0.48413226    -0.08700
C473        C  0.71071922  0.40083679  0.48357106     0.00900
C474        C  0.69936133  0.36394699  0.50289485     0.00700
C475        C  0.71323811  0.33144580  0.52331031    -0.12300
C476        C  0.73776428  0.33477895  0.52423296     0.01200
C477        C  0.69776378  0.43544681  0.46181554     0.40500
C478        C  0.75099006  0.30127242  0.54726108     0.37100
C479        C  0.77411585  0.43790946  0.55578279     0.36900
C480        C  0.82574134  0.31380079  0.44976706     0.37600
N481        N  0.68749786  0.46335044  0.44436053    -0.43200
N482        N  0.76163874  0.27460881  0.56588139    -0.43600
N483        N  0.83591889  0.28840636  0.42794869    -0.41000
N484        N  0.76395449  0.46230348  0.57883607    -0.42400
H485        H  0.82027019  0.43454216  0.54522761     0.13800
H486        H  0.77941551  0.31880351  0.45876667     0.10200
H487        H  0.74402758  0.43179387  0.46858799     0.11300
H488        H  0.70490406  0.30323518  0.53895507     0.17100
O489        O  0.90912973  0.95430490  0.44930512    -0.56900
C490        C  0.90669734  0.93218076  0.59220736     0.75700
O491        O  0.86452643  0.84986138  0.49749148    -0.58000
C492        C  0.90846705  0.93021714  0.41420488     0.75700
C493        C  0.93869580  0.83067659  0.50505685     0.78100
Cd494      Cd  0.90106056  0.89368913  0.50352611     1.37500
O495        O  0.91208456  0.95325682  0.55634981    -0.56900
O496        O  0.94199772  0.87122861  0.49975297    -0.55700
C497        C  0.85083782  0.88245597  0.50151011     0.78100
O498        O  0.91747949  0.81853597  0.51025566    -0.58100
O499        O  0.89909254  0.89379323  0.58643532    -0.56500
O500        O  0.90430946  0.89014673  0.42086799    -0.56500
O501        O  0.86050335  0.91927732  0.50640186    -0.55700
O502        O  0.61541661  0.78028938  0.55574639    -0.56900
C503        C  0.62252957  0.79777031  0.41089599     0.75700
O504        O  0.60326074  0.91040800  0.49658704    -0.58000
C505        C  0.61844071  0.80514964  0.58977435     0.75700
C506        C  0.67345300  0.85702972  0.50152219     0.78100
Cd507      Cd  0.62372948  0.83870322  0.49887479     1.37500
O508        O  0.61688928  0.77637282  0.44643985    -0.56900
O509        O  0.66489231  0.81926831  0.50733087    -0.55700
C510        C  0.58277093  0.89404943  0.49475563     0.78100
O511        O  0.65875790  0.88756453  0.49469477    -0.58100
O512        O  0.62854796  0.83707652  0.41685502    -0.56500
O513        O  0.62298331  0.84470474  0.58096139    -0.56500
O514        O  0.58172489  0.85282694  0.49477911    -0.55700
O515        O  0.91114538  0.52223543  0.05741680    -0.56900
C516        C  0.91203440  0.54867649  0.91395713     0.75700
O517        O  0.87136021  0.63320239  0.00608595    -0.58000
C518        C  0.91162553  0.54611805  0.09268575     0.75700
C519        C  0.94766231  0.64048648  0.00405087     0.78100
Cd520      Cd  0.90681538  0.58467961  0.00382687     1.37500
O521        O  0.91521346  0.52501910  0.94887385    -0.56900
O522        O  0.94894371  0.59925672  0.00259802    -0.55700
C523        C  0.85682418  0.60212279  0.00131025     0.78100
O524        O  0.92704384  0.65663812  0.00438142    -0.58100
O525        O  0.90725107  0.58844205  0.92135134    -0.56500
O526        O  0.90961854  0.58680593  0.08645575    -0.56500
O527        O  0.86552879  0.56418071  0.99875443    -0.55700
O528        O  0.62225796  0.70553160  0.05486456    -0.56900
C529        C  0.62395706  0.68450866  0.90927125     0.75700
O530        O  0.66513436  0.59997256  0.00059669    -0.58000
C531        C  0.62612165  0.68116229  0.08901563     0.75700
C532        C  0.58968143  0.58830108  0.99725223     0.78100
Cd533      Cd  0.62936037  0.64664276  0.99805826     1.37500
O534        O  0.62033019  0.70752631  0.94467717    -0.56900
O535        O  0.58765673  0.62874280  0.00527046    -0.55700
C536        C  0.67946632  0.63140575  0.99525918     0.78100
O537        O  0.61041583  0.57416418  0.99011288    -0.58100
O538        O  0.62936358  0.64498057  0.91586083    -0.56500
O539        O  0.63081898  0.64161667  0.08041022    -0.56500
O540        O  0.67045310  0.66898582  0.99114486    -0.55700
O541        O  0.40788675  0.70552024  0.43633925    -0.56900
C542        C  0.40769320  0.68317995  0.58182370     0.75700
O543        O  0.36408027  0.59964393  0.49156249    -0.58000
C544        C  0.40253621  0.68226164  0.40220162     0.75700
C545        C  0.43835844  0.58726819  0.48899481     0.78100
Cd546      Cd  0.39950699  0.64669013  0.49315696     1.37500
O547        O  0.40971640  0.70674129  0.54636051    -0.56900
O548        O  0.44050624  0.62780002  0.48196072    -0.55700
C549        C  0.34979293  0.63061110  0.49990931     0.78100
O550        O  0.41777591  0.57350164  0.49813671    -0.58100
O551        O  0.40225573  0.64364137  0.57557962    -0.56500
O552        O  0.39565109  0.64391537  0.41103127    -0.56500
O553        O  0.35868719  0.66815864  0.50466887    -0.55700
O554        O  0.11237241  0.52043734  0.45524211    -0.56900
C555        C  0.11820574  0.54506817  0.59926044     0.75700
O556        O  0.15924131  0.62506968  0.50314563    -0.58000
C557        C  0.11759616  0.54256351  0.41994154     0.75700
C558        C  0.08339223  0.63794301  0.50918356     0.78100
Cd559      Cd  0.12295522  0.57968886  0.50894777     1.37500
O560        O  0.11845291  0.51971731  0.56504966    -0.56900
O561        O  0.08130931  0.59685264  0.50679810    -0.55700
C562        C  0.17306783  0.59284196  0.50834861     0.78100
O563        O  0.10422634  0.65273007  0.51137874    -0.58100
O564        O  0.11948769  0.58556380  0.59103700    -0.56500
O565        O  0.12498830  0.58092117  0.42677194    -0.56500
O566        O  0.16346958  0.55594219  0.51348660    -0.55700
O567        O  0.41498118  0.77666997  0.04465642    -0.56900
C568        C  0.41409359  0.80409476  0.89939357     0.75700
O569        O  0.36943752  0.88025569  0.98916065    -0.58000
C570        C  0.40874707  0.79831875  0.07968345     0.75700
C571        C  0.44471365  0.89707169  0.99447586     0.78100
Cd572      Cd  0.40619108  0.83654401  0.99028519     1.37500
O573        O  0.41729301  0.77951771  0.93367243    -0.56900
O574        O  0.44749345  0.85606966  0.99494069    -0.55700
C575        C  0.35603644  0.84733388  0.98513253     0.78100
O576        O  0.42363201  0.91068986  0.99260278    -0.58100
O577        O  0.40765509  0.84276481  0.90805086    -0.56500
O578        O  0.40148690  0.83680899  0.07272756    -0.56500
O579        O  0.36602347  0.81039666  0.98393975    -0.55700
O580        O  0.11937851  0.95228161  0.06383018    -0.56900
C581        C  0.12006171  0.93767787  0.92238349     0.75700
O582        O  0.16542114  0.84839915  0.00590241    -0.58000
C583        C  0.12546244  0.92955101  0.09785562     0.75700
C584        C  0.09159699  0.83430322  0.00981230     0.78100
Cd585      Cd  0.12974290  0.89542161  0.00708978     1.37500
O586        O  0.12466341  0.96011434  0.95742561    -0.56900
O587        O  0.08934414  0.87392634  0.02120785    -0.55700
C588        C  0.17938398  0.87941349  0.99614647     0.78100
O589        O  0.11198881  0.82218323  0.99684445    -0.58100
O590        O  0.11944850  0.89670045  0.92737768    -0.56500
O591        O  0.13368127  0.89202507  0.08922109    -0.56500
O592        O  0.17032279  0.91690721  0.99230465    -0.55700
C593        C  0.29471539  0.89432277  0.00027406    -0.01100
C594        C  0.28046670  0.86020473  0.98413329     0.07500
C595        C  0.29108257  0.82241193  0.96658368    -0.07100
C596        C  0.31559147  0.81778329  0.96566519     0.04900
C597        C  0.33002100  0.85157894  0.98282500    -0.14300
C598        C  0.31925179  0.88985293  0.99941623    -0.07600
C599        C  0.25442316  0.86317255  0.98579224     0.05900
C600        C  0.24310895  0.89356124  0.95789530    -0.08700
C601        C  0.21864125  0.89861614  0.95989363     0.00900
C602        C  0.20504104  0.87273619  0.99027464     0.00700
C603        C  0.21635818  0.84129500  0.01706841    -0.12300
C604        C  0.24087443  0.83656693  0.01526704     0.01200
C605        C  0.20794978  0.92987191  0.92962492     0.40500
C606        C  0.25189197  0.80561448  0.04536417     0.37100
C607        C  0.28446940  0.93355251  0.01929853     0.36900
C608        C  0.32527260  0.77834125  0.94598899     0.37600
N609        N  0.19938590  0.95483910  0.90529827    -0.43200
N610        N  0.26084926  0.78098175  0.06950574    -0.43600
N611        N  0.33292455  0.74670729  0.93009172    -0.41000
N612        N  0.27615864  0.96490117  0.03455315    -0.42400
H613        H  0.32998040  0.91601192  0.01276970     0.13800
H614        H  0.28011844  0.79638738  0.95359677     0.10200
H615        H  0.25348714  0.91357974  0.93470156     0.11300
H616        H  0.20612568  0.82142278  0.04062099     0.17100
C617        C  0.13017439  0.00948173  0.81963050    -0.01100
C618        C  0.11514474  0.99025047  0.78755333     0.07500
C619        C  0.10049563  0.95568994  0.80089564    -0.07100
C620        C  0.10106706  0.93928182  0.84530077     0.04900
C621        C  0.11655509  0.95769529  0.87723949    -0.14300
C622        C  0.13060397  0.99338530  0.86425853    -0.07600
C623        C  0.11519893  0.50417873  0.73930641     0.05900
C624        C  0.12558771  0.97674975  0.70653577    -0.08700
C625        C  0.12646113  0.98884231  0.66055290     0.00900
C626        C  0.11662358  0.52908894  0.64679107     0.00700
C627        C  0.10598002  0.55621015  0.67978535    -0.12300
C628        C  0.10508339  0.54398416  0.72567341     0.01200
C629        C  0.13866037  0.96041996  0.62892005     0.40500
C630        C  0.09341237  0.57239222  0.75807080     0.37100
C631        C  0.14615326  0.54414415  0.80688074     0.36900
C632        C  0.08541193  0.90384099  0.85725274     0.37600
N633        N  0.14857155  0.93753374  0.60384844    -0.43200
N634        N  0.08399857  0.59509111  0.78402111    -0.43600
N635        N  0.07282285  0.87550437  0.86679470    -0.41000
N636        N  0.15903889  0.57180528  0.79667180    -0.42400
H637        H  0.14275287  0.00736580  0.88836576     0.13800
H638        H  0.08881362  0.94112945  0.77628994     0.10200
H639        H  0.13342497  0.94611428  0.71713346     0.11300
H640        H  0.09825961  0.58709344  0.66967940     0.17100
C641        C  0.12385389  0.53729657  0.29170547    -0.01100
C642        C  0.11519410  0.49541700  0.28168238     0.07500
C643        C  0.10667631  0.96889034  0.31716471    -0.07100
C644        C  0.10678073  0.48342470  0.36243139     0.04900
C645        C  0.11574792  0.52535450  0.37275134    -0.14300
C646        C  0.12392915  0.55192421  0.33671890    -0.07600
C647        C  0.11658627  0.97760460  0.23484744     0.05900
C648        C  0.13257454  0.94381039  0.22580513    -0.08700
C649        C  0.13577580  0.92764238  0.18165240     0.00900
C650        C  0.12279664  0.94564064  0.14529045     0.00700
C651        C  0.10649851  0.97915873  0.15468996    -0.12300
C652        C  0.10316363  0.49490475  0.19908432     0.01200
C653        C  0.15304774  0.89354618  0.17481812     0.40500
C654        C  0.08558314  0.52814923  0.20739986     0.37100
C655        C  0.13373518  0.56512090  0.25661852     0.36900
C656        C  0.09772315  0.45437122  0.39716343     0.37600
N657        N  0.16688868  0.86619715  0.16951223    -0.43200
N658        N  0.07145217  0.55468664  0.21419275    -0.43600
N659        N  0.09041164  0.43087306  0.42478556    -0.41000
N660        N  0.14166417  0.58738399  0.22851211    -0.42400
H661        H  0.13095904  0.58410119  0.34365716     0.13800
H662        H  0.10014392  0.93650233  0.30943045     0.10200
H663        H  0.14294426  0.93057953  0.25333476     0.11300
H664        H  0.09608614  0.99272226  0.12742640     0.17100
C665        C  0.42903677  0.72942085  0.80000156    -0.01100
C666        C  0.42157144  0.75417752  0.76232532     0.07500
C667        C  0.41289229  0.79645466  0.76950884    -0.07100
C668        C  0.41069225  0.81374966  0.81345272     0.04900
C669        C  0.41741428  0.78843990  0.85169386    -0.14300
C670        C  0.42696451  0.74662860  0.84409075    -0.07600
C671        C  0.41974394  0.73486618  0.71609422     0.05900
C672        C  0.40445653  0.69953038  0.71028723    -0.08700
C673        C  0.40034370  0.68218131  0.66713607     0.00900
C674        C  0.41155292  0.70058040  0.62827863     0.00700
C675        C  0.42694498  0.73596386  0.63413613    -0.12300
C676        C  0.43120855  0.75300057  0.67758427     0.01200
C677        C  0.38369365  0.64676661  0.66395533     0.40500
C678        C  0.44774902  0.78843098  0.68189796     0.37100
C679        C  0.43866915  0.68609724  0.79421004     0.36900
C680        C  0.40045764  0.85677517  0.81778759     0.37600
N681        N  0.37030269  0.61843086  0.66185925    -0.43200
N682        N  0.46109798  0.81671345  0.68519012    -0.43600
N683        N  0.39216766  0.89120322  0.82095804    -0.41000
N684        N  0.44635085  0.65135287  0.78948856    -0.42400
H685        H  0.43249114  0.72690776  0.87270181     0.13800
H686        H  0.40682273  0.81537007  0.74069781     0.10200
H687        H  0.39521475  0.68606794  0.73964960     0.11300
H688        H  0.43588805  0.75004094  0.60477583     0.17100
C689        C  0.41783367  0.75541330  0.30146330    -0.01100
C690        C  0.40898234  0.73146901  0.26450397     0.07500
C691        C  0.39819826  0.69113785  0.27262798    -0.07100
C692        C  0.39564093  0.67471759  0.31692284     0.04900
C693        C  0.40446347  0.69861705  0.35443208    -0.14300
C694        C  0.41562564  0.73886083  0.34586872    -0.07600
C695        C  0.40932219  0.74908229  0.21738663     0.05900
C696        C  0.42414008  0.73009265  0.18430431    -0.08700
C697        C  0.42440688  0.74544170  0.13923167     0.00900
C698        C  0.40940250  0.78021114  0.12663025     0.00700
C699        C  0.39459571  0.79899678  0.16005415    -0.12300
C700        C  0.39437408  0.78365848  0.20492032     0.01200
C701        C  0.44083226  0.72598341  0.10726385     0.40500
C702        C  0.37827181  0.80319655  0.23748981     0.37100
C703        C  0.42908617  0.79717439  0.29448562     0.36900
C704        C  0.38309386  0.63403227  0.32245742     0.37600
N705        N  0.45408753  0.71049969  0.08172064    -0.43200
N706        N  0.36543778  0.81869196  0.26380758    -0.43600
N707        N  0.37290546  0.60155101  0.32669204    -0.41000
N708        N  0.43795948  0.83074144  0.28865082    -0.42400
H709        H  0.42259539  0.75761730  0.37390087     0.13800
H710        H  0.39111865  0.67297962  0.24423837     0.10200
H711        H  0.43565801  0.70344398  0.19386908     0.11300
H712        H  0.38286555  0.82550056  0.15103111     0.17100
C713        C  0.23383074  0.63924495  0.48433860    -0.01100
C714        C  0.24862219  0.60710808  0.50318941     0.07500
C715        C  0.23852567  0.57054464  0.52433615    -0.07100
C716        C  0.21408028  0.56537345  0.52673823     0.04900
C717        C  0.19910544  0.59757306  0.50788469    -0.14300
C718        C  0.20932180  0.63442049  0.48705324    -0.07600
C719        C  0.27463774  0.61185040  0.50279115     0.05900
C720        C  0.28459961  0.64651331  0.52689671    -0.08700
C721        C  0.30898262  0.65262540  0.52736599     0.00900
C722        C  0.32398387  0.62367109  0.50305877     0.00700
C723        C  0.31399212  0.58816517  0.48004860    -0.12300
C724        C  0.28955239  0.58207902  0.47972076     0.01200
C725        C  0.31804706  0.68816997  0.55420354     0.40500
C726        C  0.28017468  0.54580527  0.45442071     0.37100
C727        C  0.24346044  0.67675427  0.46085277     0.36900
C728        C  0.20503204  0.52707194  0.54971681     0.37600
N729        N  0.32530643  0.71657511  0.57582164    -0.43200
N730        N  0.27272019  0.51665509  0.43417114    -0.43600
N731        N  0.19783552  0.99631085  0.56806988    -0.41000
N732        N  0.25125631  0.70669061  0.44193141    -0.42400
H733        H  0.19816734  0.65915363  0.47202575     0.13800
H734        H  0.24984577  0.54608077  0.53942444     0.10200
H735        H  0.27321832  0.66881740  0.54563233     0.11300
H736        H  0.32524749  0.56564802  0.46134112     0.17100
C737        C  0.50702814  0.93570812  0.01358432    -0.01100
C738        C  0.50627870  0.97931488  0.99828888     0.07500
C739        C  0.48499493  0.99632052  0.98222997    -0.07100
C740        C  0.46461032  0.97061667  0.98112801     0.04900
C741        C  0.46535854  0.92673777  0.99617386    -0.14300
C742        C  0.48674632  0.90992222  0.01229152    -0.07600
C743        C  0.52758756  0.50745373  0.99824801     0.05900
C744        C  0.54707020  0.99577848  0.97095891    -0.08700
C745        C  0.56745539  0.52151645  0.96982377     0.00900
C746        C  0.56867748  0.55957069  0.99690387     0.00700
C747        C  0.54900602  0.57143479  0.02370640    -0.12300
C748        C  0.52859282  0.54590987  0.02449658     0.01200
C749        C  0.58618872  0.50946171  0.93859551     0.40500
C750        C  0.50901392  0.55957091  0.05294557     0.37100
C751        C  0.52829426  0.91695731  0.03161269     0.36900
C752        C  0.44353467  0.98978020  0.96283564     0.37600
N753        N  0.60104314  0.49990888  0.91315071    -0.43200
N754        N  0.49326843  0.57063588  0.07553414    -0.43600
N755        N  0.42668748  0.50524355  0.94806042    -0.41000
N756        N  0.54534141  0.90196463  0.04605274    -0.42400
H757        H  0.48765564  0.87644632  0.02425066     0.13800
H758        H  0.48440214  0.52973131  0.96997688     0.10200
H759        H  0.54616802  0.96677195  0.94987307     0.11300
H760        H  0.54960882  0.60069617  0.04444551     0.17100
C761        C  0.98717286  0.74005665  0.99413924    -0.01100
C762        C  0.00944672  0.72274154  0.00483524     0.07500
C763        C  0.01133224  0.67844275  0.01610216    -0.07100
C764        C  0.99156209  0.65120176  0.01651003     0.04900
C765        C  0.96916971  0.66822739  0.00508284    -0.14300
C766        C  0.96733888  0.71284999  0.99429320    -0.07600
C767        C  0.03088309  0.75048212  0.00608774     0.05900
C768        C  0.03212300  0.78381700  0.03863144    -0.08700
C769        C  0.05202545  0.81049488  0.04137832     0.00900
C770        C  0.07115932  0.80431748  0.01072437     0.00700
C771        C  0.07018653  0.77010848  0.97900023    -0.12300
C772        C  0.05028829  0.74324191  0.97650690     0.01200
C773        C  0.05269752  0.84279083  0.07715909     0.40500
C774        C  0.04993472  0.70916265  0.94260008     0.37100
C775        C  0.98430060  0.78545585  0.98207620     0.36900
C776        C  0.99487340  0.60637243  0.03034744     0.37600
N777        N  0.05338798  0.86851364  0.10595093    -0.43200
N778        N  0.04966933  0.68175810  0.91551433    -0.43600
N779        N  0.99765062  0.57053186  0.04162412    -0.41000
N780        N  0.98194742  0.82184325  0.97246277    -0.42400
H781        H  0.95039359  0.72654240  0.98550064     0.13800
H782        H  0.02834540  0.66522158  0.02525961     0.10200
H783        H  0.01754168  0.78868608  0.06230312     0.11300
H784        H  0.08474634  0.76499525  0.95534609     0.17100
C785        C  0.79331346  0.58118162  0.97079274    -0.01100
C786        C  0.78136574  0.61593338  0.99241936     0.07500
C787        C  0.79442059  0.64730211  0.01609928    -0.07100
C788        C  0.81901196  0.64408055  0.01902544     0.04900
C789        C  0.83096813  0.60875224  0.99806690    -0.14300
C790        C  0.81780820  0.57774527  0.97394417    -0.07600
C791        C  0.75523129  0.61941403  0.99167993     0.05900
C792        C  0.74156500  0.58703417  0.01317485    -0.08700
C793        C  0.71690432  0.58954753  0.01407227     0.00900
C794        C  0.70545181  0.62544959  0.99360656     0.00700
C795        C  0.71924115  0.65752076  0.97165439    -0.12300
C796        C  0.74383922  0.65456466  0.97018481     0.01200
C797        C  0.70395454  0.55556363  0.03746420     0.40500
C798        C  0.75700312  0.68720960  0.94517013     0.37100
C799        C  0.78082011  0.54917671  0.94437533     0.36900
C800        C  0.83131604  0.67625223  0.04550216     0.37600
N801        N  0.69358805  0.52826825  0.05616944    -0.43200
N802        N  0.76755866  0.71318166  0.92485935    -0.43600
N803        N  0.84116274  0.70197083  0.06686897    -0.41000
N804        N  0.77074275  0.02368018  0.92313155    -0.42400
H805        H  0.82671212  0.55072063  0.95716236     0.13800
H806        H  0.78529061  0.67397521  0.03304281     0.10200
H807        H  0.75025363  0.55986781  0.02972221     0.11300
H808        H  0.71076946  0.68491215  0.95509606     0.17100
C809        C  0.54311861  0.99365777  0.50191233    -0.01100
C810        C  0.52080329  0.97603374  0.49227025     0.07500
C811        C  0.51892284  0.93132914  0.48287701    -0.07100
C812        C  0.53868319  0.90401558  0.48351780     0.04900
C813        C  0.56116962  0.92156804  0.49313621    -0.14300
C814        C  0.56299595  0.96653542  0.50205916    -0.07600
C815        C  0.49926852  0.50370225  0.49109115     0.05900
C816        C  0.49858158  0.53931968  0.46105756    -0.08700
C817        C  0.47890149  0.56674675  0.45954418     0.00900
C818        C  0.45904433  0.55792278  0.48759754     0.00700
C819        C  0.45945184  0.52154250  0.51665090    -0.07500
C820        C  0.47943706  0.49488695  0.51911065     0.01200
C821        C  0.47951327  0.60336987  0.42850076     0.40500
C822        C  0.47958046  0.96004392  0.55224939     0.37100
C823        C  0.54597888  0.53926914  0.51295533     0.36900
C824        C  0.53512930  0.85831202  0.47366688     0.37600
N825        N  0.47997764  0.63287924  0.40385878    -0.43200
N826        N  0.47971499  0.93225619  0.57896660    -0.43600
N827        N  0.53216735  0.82170310  0.46586684    -0.41000
N828        N  0.54820239  0.57586109  0.52168663    -0.42400
H829        H  0.57997049  0.98058346  0.50983768     0.13800
H830        H  0.50187087  0.91770575  0.47482142     0.10200
H831        H  0.51358556  0.54588496  0.43889755     0.11300
H832        H  0.44445572  0.51485724  0.53879101     0.17100
C833        C  0.60367431  0.73360706  0.69180332    -0.01100
C834        C  0.61552989  0.75517788  0.72709675     0.07500
C835        C  0.62772761  0.79383020  0.71752160    -0.07100
C836        C  0.62860457  0.81094257  0.67337844     0.04900
C837        C  0.61715586  0.78896365  0.63745838    -0.14300
C838        C  0.60465678  0.75042466  0.64736825    -0.07600
C839        C  0.61670462  0.73679043  0.77374647     0.05900
C840        C  0.63035209  0.69937213  0.78079861    -0.08700
C841        C  0.63320696  0.68220526  0.82453079     0.00900
C842        C  0.62195629  0.70240592  0.86244144     0.00700
C843        C  0.60838513  0.74013539  0.85519795    -0.12300
C844        C  0.60574326  0.75741132  0.81132316     0.01200
C845        C  0.64863757  0.64499891  0.82940986     0.40500
C846        C  0.59149780  0.79600652  0.80545378     0.37100
C847        C  0.59010857  0.69463489  0.70070906     0.36900
C848        C  0.64222676  0.85015346  0.66595136     0.37600
N849        N  0.66108284  0.61532003  0.83332163    -0.43200
N850        N  0.58009962  0.82695681  0.80058728    -0.43600
N851        N  0.65313033  0.88158426  0.66000425    -0.41000
N852        N  0.57914874  0.66354123  0.70807564    -0.42400
H853        H  0.59555881  0.73347083  0.62043150     0.13800
H854        H  0.63702423  0.81023194  0.74460222     0.10200
H855        H  0.63923212  0.68406519  0.75201907     0.11300
H856        H  0.59964716  0.75599429  0.88377618     0.17100
C857        C  0.61188749  0.75379165  0.19034177    -0.01100
C858        C  0.62246125  0.73091484  0.22640240     0.07500
C859        C  0.63423702  0.69166334  0.21735473    -0.07100
C860        C  0.63588606  0.67511711  0.17303124     0.04900
C861        C  0.62517936  0.69777830  0.13658416    -0.14300
C862        C  0.61331171  0.73715684  0.14593334    -0.07600
C863        C  0.62239553  0.74809411  0.27359694     0.05900
C864        C  0.60923821  0.72656173  0.30756182    -0.08700
C865        C  0.60909523  0.74155543  0.35270847     0.00900
C866        C  0.62243992  0.77878614  0.36437803     0.00700
C867        C  0.63585904  0.79971567  0.33019352    -0.12300
C868        C  0.63602201  0.78463750  0.28530716     0.01200
C869        C  0.59455313  0.71890817  0.38573640     0.40500
C870        C  0.65069955  0.80664635  0.25199322     0.37100
C871        C  0.59935390  0.79419394  0.19818917     0.36900
C872        C  0.64961602  0.63589720  0.16606722     0.37600
N873        N  0.58284270  0.70071841  0.41210782    -0.43200
N874        N  0.66245602  0.82426256  0.22528293    -0.43600
N875        N  0.66075575  0.60461446  0.16064986    -0.41000
N876        N  0.58935352  0.82663637  0.20440501    -0.42400
H877        H  0.60498780  0.75492705  0.11855534     0.13800
H878        H  0.64267050  0.67440496  0.24498879     0.10200
H879        H  0.59889267  0.69817021  0.29862167     0.11300
H880        H  0.64645521  0.82795103  0.33854824     0.17100
C881        C  0.02114386  0.67549732  0.48722645    -0.01100
C882        C  0.02084488  0.71784898  0.50601981     0.07500
C883        C  0.04126184  0.73386687  0.52660534    -0.07100
C884        C  0.06188839  0.70876393  0.52802392     0.04900
C885        C  0.06227175  0.66649676  0.50872153    -0.14300
C886        C  0.04167697  0.65031990  0.48882987    -0.07600
C887        C  0.99952287  0.74607563  0.50436931     0.05900
C888        C  0.97850212  0.73197454  0.52533799    -0.08700
C889        C  0.95823350  0.75820908  0.52525424     0.00900
C890        C  0.95894701  0.79991625  0.50451873     0.00700
C891        C  0.97997503  0.81360559  0.48316063    -0.12300
C892        C  0.00003582  0.78713325  0.48263647     0.01200
C893        C  0.93731484  0.74189011  0.54784746     0.40500
C894        C  0.02079690  0.80248797  0.45868851     0.37100
C895        C  0.00081874  0.65749801  0.46507057     0.36900
C896        C  0.08200231  0.72663965  0.55095526     0.37600
N897        N  0.92060326  0.72852286  0.56595090    -0.43200
N898        N  0.03742137  0.81479629  0.43948232    -0.43600
N899        N  0.09806284  0.74100928  0.56951127    -0.41000
N900        N  0.98453841  0.64293415  0.44741197    -0.42400
H901        H  0.04166656  0.61796353  0.47382301     0.13800
H902        H  0.04101991  0.76612619  0.54184891     0.10200
H903        H  0.97801788  0.70049578  0.54229699     0.11300
H904        H  0.98075853  0.84516169  0.46639619     0.17100
C905        C  0.90263008  0.54211955  0.78688224    -0.01100
C906        C  0.91213783  0.00094731  0.77575828     0.07500
C907        C  0.92233956  0.97557458  0.81007545    -0.07100
C908        C  0.92279900  0.99024491  0.85525488     0.04900
C909        C  0.91303700  0.53142463  0.86665696    -0.14300
C910        C  0.90324271  0.55700719  0.83183195    -0.07600
C911        C  0.91088907  0.98318983  0.72883209     0.05900
C912        C  0.92312445  0.50418270  0.69326066    -0.08700
C913        C  0.92212623  0.98847528  0.64848354     0.00900
C914        C  0.90865556  0.95083940  0.63874720     0.00700
C915        C  0.89650253  0.92994690  0.67469223    -0.12300
C916        C  0.89744908  0.94579368  0.71925257     0.01200
C917        C  0.93556566  0.51109463  0.61374683     0.40500
C918        C  0.88394238  0.92383774  0.75442013     0.37100
C919        C  0.89132767  0.56895673  0.75311689     0.36900
C920        C  0.93355882  0.96240073  0.88875826     0.37600
N921        N  0.94640737  0.52930161  0.58603976    -0.43200
N922        N  0.87313405  0.90633295  0.78266395    -0.43600
N923        N  0.94220607  0.93988446  0.91542756    -0.41000
N924        N  0.88224324  0.59045459  0.72610019    -0.42400
H925        H  0.89549129  0.58851870  0.83980846     0.13800
H926        H  0.92980168  0.94395193  0.80150206     0.10200
H927        H  0.93358810  0.53286172  0.70062011     0.11300
H928        H  0.88591114  0.90129318  0.66797588     0.17100
C929        C  0.90387766  0.50575251  0.31275386    -0.01100
C930        C  0.91388930  0.98027431  0.27743057     0.07500
C931        C  0.92336542  0.93920488  0.28783590    -0.07100
C932        C  0.92234168  0.92276410  0.33233606     0.04900
C933        C  0.91178482  0.94780851  0.36755962    -0.14300
C934        C  0.90307972  0.98956434  0.35740185    -0.07600
C935        C  0.91419562  0.99552636  0.22931622     0.05900
C936        C  0.92705343  0.53303006  0.21756612    -0.08700
C937        C  0.92685669  0.54949436  0.17306040     0.00900
C938        C  0.91390392  0.52781652  0.13910040     0.00700
C939        C  0.90170260  0.98944856  0.15053127    -0.12300
C940        C  0.90148406  0.97357411  0.19532438     0.01200
C941        C  0.94036136  0.58834089  0.16303140     0.40500
C942        C  0.88698292  0.93624078  0.20624631     0.37100
C943        C  0.89327700  0.54765758  0.30359295     0.36900
C944        C  0.93271350  0.88052605  0.34103294     0.37600
N945        N  0.95115192  0.61948979  0.15495912    -0.43200
N946        N  0.87523755  0.90654505  0.21524808    -0.43600
N947        N  0.94106735  0.84673458  0.34805253    -0.41000
N948        N  0.88472183  0.58117712  0.29614471    -0.42400
H949        H  0.89482040  0.50894664  0.38407463     0.13800
H950        H  0.93141476  0.91978918  0.26094624     0.10200
H951        H  0.93705202  0.54976431  0.24343975     0.11300
H952        H  0.89147126  0.97290191  0.12487950     0.17100
C953        C  0.78686897  0.90725573  0.52740302    -0.01100
C954        C  0.77513020  0.87451252  0.50292831     0.07500
C955        C  0.78840230  0.84397237  0.47778007    -0.07100
C956        C  0.81306558  0.84553080  0.47695748     0.04900
C957        C  0.82484465  0.87851458  0.50131196    -0.14300
C958        C  0.81146253  0.90928632  0.52602265    -0.07600
C959        C  0.74905241  0.87091197  0.50395732     0.05900
C960        C  0.73536838  0.90385670  0.48413227    -0.08700
C961        C  0.71071918  0.90083693  0.48357105     0.00900
C962        C  0.69936129  0.86394701  0.50289458     0.00700
C963        C  0.71323804  0.83144575  0.52330996    -0.12300
C964        C  0.73776420  0.83477882  0.52423266     0.01200
C965        C  0.69776374  0.93544698  0.46181557     0.40500
C966        C  0.75098997  0.80127210  0.54726048     0.37100
C967        C  0.77411581  0.93790910  0.55578307     0.36900
C968        C  0.82574117  0.81380076  0.44976672     0.37600
N969        N  0.68749779  0.96335051  0.44436049    -0.43200
N970        N  0.76163868  0.77460845  0.56588066    -0.43600
N971        N  0.83591867  0.78840629  0.42794832    -0.41000
N972        N  0.76395445  0.96230308  0.57883641    -0.42400
H973        H  0.82027014  0.93454184  0.54522766     0.13800
H974        H  0.77941537  0.81880370  0.45876632     0.10200
H975        H  0.74402758  0.93179394  0.46858804     0.11300
H976        H  0.70490396  0.80323508  0.53895459     0.17100
loop_ 
_geom_bond_atom_site_label_1 
_geom_bond_atom_site_label_2 
_geom_bond_distance 
_geom_bond_site_symmetry_2 
_ccdc_geom_bond_type 
O1            C4   1.269       .  A
O1           Cd6   2.484       .  S
C2           O11   1.265       .  A
C2            O7   1.269       .  A
C2          C426   1.488       .  S
O3            C9   1.269       .  A
O3           Cd6   2.483       .  S
C4           O12   1.265       .  A
C4          C445   1.482       .  S
C5           O10   1.270       .  A
C5            O8   1.265       .  A
C5          C402   1.486       .  S
Cd6          O13   2.434       .  S
Cd6          O12   2.435       .  S
Cd6          O11   2.437       .  S
Cd6           O7   2.483       .  S
Cd6          O10   2.491       .  S
Cd6           O8   2.427       .  S
C9           O13   1.264       .  A
C9          C469   1.483       .  S
O14          C17   1.271       .  A
O14         Cd19   2.488       .  S
C15          O24   1.265       .  A
C15          O20   1.270       .  A
C15         C378   1.486       .  S
O16          C22   1.270       .  A
O16         Cd19   2.485       .  S
C17          O25   1.265       .  A
C17         C349   1.486       .  S
C18          O23   1.271       .  A
C18          O21   1.266       .  A
C18         C474   1.489       .  S
Cd19         O26   2.430       .  S
Cd19         O25   2.418       .  S
Cd19         O24   2.422       .  S
Cd19         O20   2.488       .  S
Cd19         O23   2.494       .  S
Cd19         O21   2.429       .  S
C22          O26   1.264       .  A
C22         C325   1.489       .  S
O27          C30   1.269       .  A
O27         Cd32   2.490       .  S
C28          O37   1.266       .  A
C28          O33   1.270       .  A
C28         C421   1.487       .  S
O29          C35   1.270       .  A
O29         Cd32   2.502       .  S
C30          O38   1.264       .  A
C30         C450   1.481       .  S
C31          O36   1.271       .  A
C31          O34   1.265       .  A
C31         C277   1.490       .  S
Cd32         O39   2.437   1_554  S
Cd32         O38   2.436       .  S
Cd32         O37   2.425   1_554  S
Cd32         O33   2.481   1_554  S
Cd32         O36   2.487       .  S
Cd32         O34   2.436       .  S
C35          O39   1.264   1_554  A
C35         C301   1.488   1_554  S
O40          C43   1.271       .  A
O40         Cd45   2.487   1_554  S
C41          O50   1.264       .  A
C41          O46   1.271       .  A
C41         C354   1.486       .  S
O42          C48   1.270   1_554  A
O42         Cd45   2.486   1_554  S
C43          O51   1.265       .  A
C43         C373   1.488       .  S
C44          O49   1.270       .  A
C44          O47   1.266   1_556  A
C44         C258   1.484       .  S
Cd45         O52   2.441       .  S
Cd45         O51   2.427   1_556  S
Cd45         O50   2.415       .  S
Cd45         O46   2.493       .  S
Cd45         O49   2.481       .  S
Cd45         O47   2.440   1_556  S
C48          O52   1.265       .  A
C48         C306   1.488       .  S
O53          C56   1.271       .  A
O53         Cd58   2.497       .  S
C54          O63   1.264       .  A
C54          O59   1.271       .  A
C54         C186   1.485       .  S
O55          C61   1.269       .  A
O55         Cd58   2.479       .  S
C56          O64   1.264       .  A
C56         C205   1.492       .  S
C57          O62   1.269       .  A
C57          O60   1.264       .  A
C57         C330   1.479       .  S
Cd58         O65   2.430       .  S
Cd58         O64   2.427       .  S
Cd58         O63   2.430       .  S
Cd58         O59   2.489       .  S
Cd58         O62   2.474       .  S
Cd58         O60   2.418       .  S
C61          O65   1.265       .  A
C61         C234   1.484       .  S
O66          C69   1.270       .  A
O66         Cd71   2.486       .  S
C67          O76   1.265       .  A
C67          O72   1.270       .  A
C67         C138   1.481       .  S
O68          C74   1.271       .  A
O68         Cd71   2.493       .  S
C69          O77   1.265       .  A
C69         C157   1.489       .  S
C70          O75   1.271       .  A
C70          O73   1.266       .  A
C70         C397   1.484       .  S
Cd71         O78   2.419       .  S
Cd71         O77   2.416       .  S
Cd71         O76   2.424       .  S
Cd71         O72   2.478       .  S
Cd71         O75   2.476       .  S
Cd71         O73   2.426       .  S
C74          O78   1.264       .  A
C74         C229   1.487       .  S
O79          C82   1.271       .  A
O79         Cd84   2.485   1_554  S
C80          O89   1.264       .  A
C80          O85   1.272       .  A
C80         C181   1.491       .  S
O81          C87   1.271       .  A
O81         Cd84   2.480       .  S
C82          O90   1.266       .  A
C82         C210   1.487       .  S
C83          O88   1.270       .  A
C83          O86   1.265       .  A
C83         C253   1.486       .  S
Cd84         O91   2.430       .  S
Cd84         O90   2.433   1_556  S
Cd84         O89   2.423       .  S
Cd84         O85   2.487       .  S
Cd84         O88   2.480       .  S
Cd84         O86   2.429       .  S
C87          O91   1.265       .  A
C87         C109   1.487       .  S
O92          C95   1.269       .  A
O92         Cd97   2.476       .  S
C93         O102   1.264       .  A
C93          O98   1.269       .  A
C93         C133   1.476       .  S
O94         C100   1.269   1_554  A
O94         Cd97   2.485       .  S
C95         O103   1.264       .  A
C95         C162   1.484       .  S
C96         O101   1.270   1_554  A
C96          O99   1.265       .  A
C96         C282   1.482       .  S
Cd97        O104   2.433   1_554  S
Cd97        O103   2.428       .  S
Cd97        O102   2.422   1_554  S
Cd97         O98   2.478   1_554  S
Cd97        O101   2.481   1_554  S
Cd97         O99   2.420       .  S
C100        O104   1.263       .  A
C100        C114   1.480       .  S
C105        C106   1.409   1_554  A
C105        C110   1.401   1_554  A
C105        C119   1.444       .  S
C106        C111   1.483       .  S
C106        C107   1.400       .  A
C107        C108   1.400       .  A
C107        H126   1.085       .  S
C108        C109   1.419       .  A
C108        C120   1.444       .  S
C109        C110   1.406       .  A
C110        H125   1.084   1_556  S
C111        C112   1.401       .  A
C111        C116   1.410   1_556  A
C112        C113   1.400       .  A
C112        H127   1.085       .  S
C113        C114   1.416       .  A
C113        C117   1.445       .  S
C114        C115   1.404   1_556  A
C115        C116   1.401       .  A
C115        H128   1.085       .  S
C116        C118   1.444       .  S
C117        N121   1.157       .  T
C118        N122   1.157       .  T
C119        N124   1.157       .  T
C120        N123   1.157       .  T
C129        C130   1.410       .  A
C129        C134   1.401       .  A
C129        C631   1.444       .  S
C130        C623   1.480       .  S
C130        C131   1.400       .  A
C131        C132   1.398       .  A
C131        H150   1.085       .  S
C132        C133   1.414       .  A
C132        C144   1.444       .  S
C133        C134   1.404       .  A
C134        H149   1.085       .  S
C135        C618   1.480   1_545  S
C135        C140   1.407       .  A
C135        C624   1.402   1_545  A
C136        C137   1.401       .  A
C136        C623   1.402       .  A
C136        H151   1.085       .  S
C137        C626   1.414       .  A
C137        C141   1.444       .  S
C138        C139   1.407       .  A
C138        C625   1.414   1_545  A
C139        C140   1.399       .  A
C139        H152   1.085       .  S
C140        C142   1.444       .  S
C141        N145   1.157       .  T
C142        N146   1.157       .  T
C143        C617   1.444       .  S
C143        N148   1.157       .  T
C144        N147   1.157       .  T
C153        C154   1.407   1_545  A
C153        C158   1.397       .  A
C153        C167   1.445       .  S
C154        C647   1.482       .  S
C154        C643   1.402       .  A
C155        C642   1.402       .  A
C155        C644   1.403       .  A
C155        H174   1.085       .  S
C156        C157   1.417   1_565  A
C156        C643   1.403       .  A
C156        C168   1.443       .  S
C157        C158   1.409       .  A
C158        H173   1.084       .  S
C159        C642   1.482       .  S
C159        C160   1.399       .  A
C159        C652   1.409       .  A
C160        C161   1.398       .  A
C160        H175   1.085       .  S
C161        C162   1.417       .  A
C161        C165   1.444       .  S
C162        C163   1.407       .  A
C163        C652   1.401       .  A
C163        H176   1.084       .  S
C164        C647   1.409       .  A
C164        C651   1.401       .  A
C164        C166   1.444   1_565  S
C165        N169   1.157       .  T
C166        N170   1.157       .  T
C167        N172   1.157       .  T
C168        N171   1.157       .  T
C177        C178   1.411       .  A
C177        C182   1.402       .  A
C177        C191   1.444       .  S
C178        C183   1.487       .  S
C178        C179   1.400       .  A
C179        C180   1.400       .  A
C179        H198   1.085       .  S
C180        C181   1.421       .  A
C180        C192   1.445       .  S
C181        C182   1.407       .  A
C182        H197   1.084       .  S
C183        C184   1.401       .  A
C183        C188   1.412       .  A
C184        C185   1.398       .  A
C184        H199   1.085       .  S
C185        C186   1.416       .  A
C185        C189   1.444       .  S
C186        C187   1.406       .  A
C187        C188   1.404       .  A
C187        H200   1.084       .  S
C188        C190   1.444       .  S
C189        N193   1.157       .  T
C190        N194   1.157       .  T
C191        N196   1.157       .  T
C192        N195   1.157       .  T
C201        C202   1.410       .  A
C201        C206   1.403       .  A
C201        C215   1.444       .  S
C202        C207   1.485       .  S
C202        C203   1.398       .  A
C203        C204   1.400       .  A
C203        H222   1.085       .  S
C204        C205   1.421       .  A
C204        C216   1.444       .  S
C205        C206   1.408       .  A
C206        H221   1.084       .  S
C207        C208   1.403       .  A
C207        C212   1.408       .  A
C208        C209   1.405       .  A
C208        H223   1.085       .  S
C209        C210   1.415       .  A
C209        C213   1.444       .  S
C210        C211   1.407       .  A
C211        C212   1.399       .  A
C211        H224   1.085       .  S
C212        C214   1.444       .  S
C213        N217   1.157       .  T
C214        N218   1.157       .  T
C215        N220   1.157       .  T
C216        N219   1.157       .  T
C225        C226   1.411       .  A
C225        C230   1.402       .  A
C225        C239   1.444       .  S
C226        C231   1.486       .  S
C226        C227   1.400       .  A
C227        C228   1.400       .  A
C227        H246   1.085       .  S
C228        C229   1.419       .  A
C228        C240   1.445       .  S
C229        C230   1.406       .  A
C230        H245   1.085       .  S
C231        C232   1.401       .  A
C231        C236   1.411       .  A
C232        C233   1.399       .  A
C232        H247   1.085       .  S
C233        C234   1.416       .  A
C233        C237   1.444       .  S
C234        C235   1.406       .  A
C235        C236   1.402       .  A
C235        H248   1.085       .  S
C236        C238   1.444       .  S
C237        N241   1.157       .  T
C238        N242   1.157       .  T
C239        N244   1.157       .  T
C240        N731   1.157   1_545  T
N243        C728   1.157       .  T
C249        C250   1.409   1_554  A
C249        C254   1.399       .  A
C249        C263   1.444       .  S
C250        C743   1.487       .  S
C250        C251   1.404       .  A
C251        C252   1.402       .  A
C251        H758   1.085       .  S
C252        C253   1.415       .  A
C252        C264   1.443       .  S
C253        C254   1.407   1_556  A
C254        H269   1.085       .  S
C255        C738   1.487   1_545  S
C255        C260   1.410   1_556  A
C255        C744   1.404   1_545  A
C256        C743   1.404       .  A
C256        C745   1.402       .  A
C256        H271   1.085       .  S
C257        C258   1.414       .  A
C257        C744   1.402   1_545  A
C257        C261   1.444       .  S
C258        C259   1.406   1_556  A
C259        C260   1.400       .  A
C259        H272   1.085       .  S
C260        C262   1.444       .  S
C261        N265   1.157   1_545  T
C262        N266   1.157       .  T
C263        N268   1.157       .  T
C264        N755   1.157       .  T
N267        C752   1.157   1_545  T
H270        C739   1.085   1_545  S
C273        C274   1.411   1_656  A
C273        C278   1.403       .  A
C273        C287   1.444       .  S
C274        C279   1.487       .  S
C274        C275   1.400       .  A
C275        C276   1.400   1_455  A
C275        H294   1.085       .  S
C276        C277   1.419       .  A
C276        C288   1.444       .  S
C277        C278   1.407   1_554  A
C278        H293   1.084       .  S
C279        C280   1.402       .  A
C279        C284   1.412   1_554  A
C280        C281   1.400       .  A
C280        H295   1.085       .  S
C281        C282   1.415       .  A
C281        C285   1.445       .  S
C282        C283   1.404   1_554  A
C283        C284   1.402       .  A
C283        H296   1.085       .  S
C284        C286   1.444       .  S
C285        N289   1.157       .  T
C286        N290   1.157       .  T
C287        N292   1.157       .  T
C288        N291   1.157       .  T
C297        C298   1.409       .  A
C297        C302   1.400       .  A
C297        C311   1.444       .  S
C298        C303   1.490       .  S
C298        C299   1.405   1_556  A
C299        C300   1.405       .  A
C299        H318   1.085       .  S
C300        C301   1.414   1_554  A
C300        C312   1.443       .  S
C301        C302   1.408       .  A
C302        H317   1.085       .  S
C303        C304   1.405   1_556  A
C303        C308   1.409       .  A
C304        C305   1.404       .  A
C304        H319   1.085       .  S
C305        C306   1.415   1_554  A
C305        C309   1.444       .  S
C306        C307   1.408       .  A
C307        C308   1.401       .  A
C307        H320   1.085       .  S
C308        C310   1.444       .  S
C309        N313   1.157       .  T
C310        N314   1.157       .  T
C311        N804   1.157       .  T
C312        N315   1.157       .  T
N316        C799   1.157       .  T
C321        C322   1.412       .  A
C321        C326   1.401       .  A
C321        C823   1.444       .  S
C322        C815   1.488       .  S
C322        C323   1.401       .  A
C323        C324   1.400       .  A
C323        H342   1.085       .  S
C324        C325   1.419       .  A
C324        C336   1.444       .  S
C325        C326   1.406       .  A
C326        H341   1.084       .  S
C327        C810   1.488   1_545  S
C327        C328   1.403       .  A
C327        C332   1.413   1_545  A
C328        C329   1.399       .  A
C328        H343   1.085       .  S
C329        C330   1.415       .  A
C329        C333   1.445       .  S
C330        C331   1.403       .  A
C331        C332   1.400   1_545  A
C331        H344   1.085       .  S
C332        C822   1.444       .  S
C333        N337   1.157       .  T
C334        C820   1.444       .  S
C334        N338   1.157       .  T
C335        C809   1.444   1_545  S
C335        N340   1.157       .  T
C336        N339   1.157       .  T
C345        C346   1.410       .  A
C345        C350   1.403       .  A
C345        C359   1.444       .  S
C346        C351   1.483       .  S
C346        C347   1.399       .  A
C347        C348   1.399       .  A
C347        H366   1.085       .  S
C348        C349   1.418       .  A
C348        C360   1.444       .  S
C349        C350   1.407       .  A
C350        H365   1.084       .  S
C351        C352   1.400       .  A
C351        C356   1.409       .  A
C352        C353   1.399       .  A
C352        H367   1.085       .  S
C353        C354   1.419       .  A
C353        C357   1.445       .  S
C354        C355   1.406       .  A
C355        C356   1.403       .  A
C355        H368   1.084       .  S
C356        C358   1.443       .  S
C357        N361   1.157       .  T
C358        N362   1.157       .  T
C359        N364   1.157       .  T
C360        N363   1.157       .  T
C369        C370   1.410       .  A
C369        C374   1.402       .  A
C369        C383   1.444       .  S
C370        C375   1.483       .  S
C370        C371   1.399       .  A
C371        C372   1.400       .  A
C371        H390   1.085       .  S
C372        C373   1.419       .  A
C372        C384   1.445       .  S
C373        C374   1.406       .  A
C374        H389   1.084       .  S
C375        C376   1.403       .  A
C375        C380   1.408       .  A
C376        C377   1.404       .  A
C376        H391   1.085       .  S
C377        C378   1.415       .  A
C377        C381   1.444       .  S
C378        C379   1.407       .  A
C379        C380   1.397       .  A
C379        H392   1.085       .  S
C380        C382   1.444       .  S
C381        N385   1.157       .  T
C382        N386   1.157       .  T
C383        N388   1.157       .  T
C384        N387   1.157       .  T
C393        C394   1.410       .  A
C393        C398   1.399       .  A
C393        C407   1.444       .  S
C394        C399   1.489   1_455  S
C394        C395   1.405       .  A
C395        C396   1.402       .  A
C395        H414   1.085       .  S
C396        C397   1.414       .  A
C396        C408   1.444       .  S
C397        C398   1.407       .  A
C398        H413   1.085       .  S
C399        C400   1.405       .  A
C399        C404   1.410   1_655  A
C400        C401   1.404       .  A
C400        H415   1.085       .  S
C401        C402   1.415       .  A
C401        C405   1.443       .  S
C402        C403   1.407       .  A
C403        C404   1.398   1_655  A
C403        H416   1.085       .  S
C404        C406   1.445       .  S
C405        N409   1.157       .  T
C406        N410   1.157       .  T
C407        N412   1.157   1_455  T
C408        N411   1.157       .  T
C417        C422   1.398       .  A
C417        C906   1.408       .  A
C417        C431   1.445       .  S
C418        C423   1.485       .  S
C418        C419   1.403       .  A
C418        C905   1.408       .  A
C419        C420   1.402       .  A
C419        H438   1.085       .  S
C420        C909   1.416       .  A
C420        C432   1.443       .  S
C421        C422   1.408       .  A
C421        C908   1.416   1_545  A
C422        H437   1.085       .  S
C423        C428   1.408       .  A
C423        C912   1.403       .  A
C424        C911   1.403   1_545  A
C424        C913   1.403   1_545  A
C424        H439   1.085       .  S
C425        C426   1.416       .  A
C425        C912   1.403       .  A
C425        C917   1.443       .  S
C426        C427   1.408       .  A
C427        C428   1.398       .  A
C427        H440   1.085       .  S
C428        C430   1.445       .  S
C429        C913   1.443   1_545  S
C429        N433   1.157       .  T
C430        N434   1.157       .  T
C431        N436   1.157       .  T
C432        N435   1.157       .  T
C441        C930   1.412   1_545  A
C441        C934   1.402   1_545  A
C441        C455   1.444       .  S
C442        C447   1.488       .  S
C442        C443   1.403       .  A
C442        C929   1.412       .  A
C443        C444   1.401       .  A
C443        H462   1.085       .  S
C444        C445   1.415       .  A
C444        C456   1.445       .  S
C445        C446   1.404       .  A
C446        C929   1.402       .  A
C446        H949   1.085       .  S
C447        C452   1.412       .  A
C447        C936   1.403       .  A
C448        C449   1.401       .  A
C448        C935   1.403   1_545  A
C448        H463   1.085       .  S
C449        C450   1.415       .  A
C449        C453   1.445       .  S
C450        C939   1.403   1_545  A
C451        C452   1.402       .  A
C451        C938   1.403       .  A
C451        H464   1.085       .  S
C452        C454   1.444       .  S
C453        N457   1.157       .  T
C454        N458   1.157       .  T
C455        N460   1.157       .  T
C456        N459   1.157       .  T
H461        C934   1.085   1_545  S
C465        C466   1.409       .  A
C465        C470   1.399       .  A
C465        C479   1.444       .  S
C466        C471   1.486       .  S
C466        C467   1.405       .  A
C467        C468   1.403       .  A
C467        H486   1.085       .  S
C468        C469   1.413       .  A
C468        C480   1.444       .  S
C469        C470   1.406       .  A
C470        H485   1.085       .  S
C471        C472   1.404       .  A
C471        C476   1.408       .  A
C472        C473   1.405       .  A
C472        H487   1.085       .  S
C473        C474   1.416       .  A
C473        C477   1.443       .  S
C474        C475   1.408       .  A
C475        C476   1.399       .  A
C475        H488   1.085       .  S
C476        C478   1.444       .  S
C477        N481   1.157       .  T
C478        N482   1.157       .  T
C479        N484   1.157       .  T
C480        N483   1.157       .  T
O489        C492   1.269       .  A
O489       Cd494   2.484       .  S
C490        O499   1.265       .  A
C490        O495   1.269       .  A
C490        C914   1.488       .  S
O491        C497   1.269       .  A
O491       Cd494   2.483       .  S
C492        O500   1.265       .  A
C492        C933   1.482       .  S
C493        O498   1.270       .  A
C493        O496   1.265       .  A
C493        C890   1.486       .  S
Cd494       O501   2.434       .  S
Cd494       O500   2.435       .  S
Cd494       O499   2.437       .  S
Cd494       O495   2.483       .  S
Cd494       O498   2.491       .  S
Cd494       O496   2.427       .  S
C497        O501   1.264       .  A
C497        C957   1.483       .  S
O502        C505   1.271       .  A
O502       Cd507   2.488       .  S
C503        O512   1.265       .  A
C503        O508   1.270       .  A
C503        C866   1.486       .  S
O504        C510   1.270       .  A
O504       Cd507   2.485       .  S
C505        O513   1.265       .  A
C505        C837   1.486       .  S
C506        O511   1.271       .  A
C506        O509   1.266       .  A
C506        C962   1.489       .  S
Cd507       O514   2.430       .  S
Cd507       O513   2.418       .  S
Cd507       O512   2.422       .  S
Cd507       O508   2.488       .  S
Cd507       O511   2.494       .  S
Cd507       O509   2.429       .  S
C510        O514   1.264       .  A
C510        C813   1.489       .  S
O515        C518   1.269       .  A
O515       Cd520   2.490       .  S
C516        O525   1.266       .  A
C516        O521   1.270       .  A
C516        C909   1.487       .  S
O517        C523   1.270       .  A
O517       Cd520   2.502       .  S
C518        O526   1.264       .  A
C518        C938   1.481       .  S
C519        O524   1.271       .  A
C519        O522   1.265       .  A
C519        C765   1.490       .  S
Cd520       O527   2.437   1_554  S
Cd520       O526   2.436       .  S
Cd520       O525   2.425   1_554  S
Cd520       O521   2.481   1_554  S
Cd520       O524   2.487       .  S
Cd520       O522   2.436       .  S
C523        O527   1.264   1_554  A
C523        C789   1.488   1_554  S
O528        C531   1.271       .  A
O528       Cd533   2.487   1_554  S
C529        O538   1.264       .  A
C529        O534   1.271       .  A
C529        C842   1.486       .  S
O530        C536   1.270   1_554  A
O530       Cd533   2.486   1_554  S
C531        O539   1.265       .  A
C531        C861   1.488       .  S
C532        O537   1.270       .  A
C532        O535   1.266   1_556  A
C532        C746   1.484       .  S
Cd533       O540   2.441       .  S
Cd533       O539   2.427   1_556  S
Cd533       O538   2.415       .  S
Cd533       O534   2.493       .  S
Cd533       O537   2.481       .  S
Cd533       O535   2.440   1_556  S
C536        O540   1.265       .  A
C536        C794   1.488       .  S
O541        C544   1.271       .  A
O541       Cd546   2.497       .  S
C542        O551   1.264       .  A
C542        O547   1.271       .  A
C542        C674   1.485       .  S
O543        C549   1.269       .  A
O543       Cd546   2.479       .  S
C544        O552   1.264       .  A
C544        C693   1.492       .  S
C545        O550   1.269       .  A
C545        O548   1.264       .  A
C545        C818   1.479       .  S
Cd546       O553   2.430       .  S
Cd546       O552   2.427       .  S
Cd546       O551   2.430       .  S
Cd546       O547   2.489       .  S
Cd546       O550   2.474       .  S
Cd546       O548   2.418       .  S
C549        O553   1.265       .  A
C549        C722   1.484       .  S
O554        C557   1.270       .  A
O554       Cd559   2.486       .  S
C555        O564   1.265       .  A
C555        O560   1.270       .  A
C555        C626   1.481       .  S
O556        C562   1.271       .  A
O556       Cd559   2.493       .  S
C557        O565   1.265       .  A
C557        C645   1.489       .  S
C558        O563   1.271       .  A
C558        O561   1.266       .  A
C558        C885   1.484       .  S
Cd559       O566   2.419       .  S
Cd559       O565   2.416       .  S
Cd559       O564   2.424       .  S
Cd559       O560   2.478       .  S
Cd559       O563   2.476       .  S
Cd559       O561   2.426       .  S
C562        O566   1.264       .  A
C562        C717   1.487       .  S
O567        C570   1.271       .  A
O567       Cd572   2.485   1_554  S
C568        O577   1.264       .  A
C568        O573   1.272       .  A
C568        C669   1.491       .  S
O569        C575   1.271       .  A
O569       Cd572   2.480       .  S
C570        O578   1.266       .  A
C570        C698   1.487       .  S
C571        O576   1.270       .  A
C571        O574   1.265       .  A
C571        C741   1.486       .  S
Cd572       O579   2.430       .  S
Cd572       O578   2.433   1_556  S
Cd572       O577   2.423       .  S
Cd572       O573   2.487       .  S
Cd572       O576   2.480       .  S
Cd572       O574   2.429       .  S
C575        O579   1.265       .  A
C575        C597   1.487       .  S
O580        C583   1.269       .  A
O580       Cd585   2.476       .  S
C581        O590   1.264       .  A
C581        O586   1.269       .  A
C581        C621   1.476       .  S
O582        C588   1.269   1_554  A
O582       Cd585   2.485       .  S
C583        O591   1.264       .  A
C583        C650   1.484       .  S
C584        O589   1.270   1_554  A
C584        O587   1.265       .  A
C584        C770   1.482       .  S
Cd585       O592   2.433   1_554  S
Cd585       O591   2.428       .  S
Cd585       O590   2.422   1_554  S
Cd585       O586   2.478   1_554  S
Cd585       O589   2.481   1_554  S
Cd585       O587   2.420       .  S
C588        O592   1.263       .  A
C588        C602   1.480       .  S
C593        C594   1.409   1_554  A
C593        C598   1.401   1_554  A
C593        C607   1.444       .  S
C594        C599   1.483       .  S
C594        C595   1.400       .  A
C595        C596   1.400       .  A
C595        H614   1.085       .  S
C596        C597   1.419       .  A
C596        C608   1.444       .  S
C597        C598   1.406       .  A
C598        H613   1.084   1_556  S
C599        C600   1.401       .  A
C599        C604   1.410   1_556  A
C600        C601   1.400       .  A
C600        H615   1.085       .  S
C601        C602   1.416       .  A
C601        C605   1.445       .  S
C602        C603   1.404   1_556  A
C603        C604   1.401       .  A
C603        H616   1.085       .  S
C604        C606   1.444       .  S
C605        N609   1.157       .  T
C606        N610   1.157       .  T
C607        N612   1.157       .  T
C608        N611   1.157       .  T
C617        C618   1.410   1_545  A
C617        C622   1.401   1_545  A
C618        C619   1.400       .  A
C619        C620   1.398       .  A
C619        H638   1.085       .  S
C620        C621   1.414       .  A
C620        C632   1.444       .  S
C621        C622   1.404       .  A
C622        H637   1.085   1_565  S
C623        C628   1.407       .  A
C624        C625   1.401       .  A
C624        H639   1.085       .  S
C625        C629   1.444       .  S
C626        C627   1.407       .  A
C627        C628   1.399       .  A
C627        H640   1.085       .  S
C628        C630   1.444       .  S
C629        N633   1.157       .  T
C630        N634   1.157       .  T
C631        N636   1.157       .  T
C632        N635   1.157       .  T
C641        C642   1.407       .  A
C641        C646   1.397       .  A
C641        C655   1.445       .  S
C643        H662   1.085       .  S
C644        C645   1.417       .  A
C644        C656   1.443       .  S
C645        C646   1.409       .  A
C646        H661   1.084       .  S
C647        C648   1.399       .  A
C648        C649   1.398       .  A
C648        H663   1.085       .  S
C649        C650   1.417       .  A
C649        C653   1.444       .  S
C650        C651   1.407       .  A
C651        H664   1.084       .  S
C652        C654   1.444       .  S
C653        N657   1.157       .  T
C654        N658   1.157       .  T
C655        N660   1.157       .  T
C656        N659   1.157       .  T
C665        C666   1.411       .  A
C665        C670   1.402       .  A
C665        C679   1.444       .  S
C666        C671   1.487       .  S
C666        C667   1.400       .  A
C667        C668   1.400       .  A
C667        H686   1.085       .  S
C668        C669   1.421       .  A
C668        C680   1.445       .  S
C669        C670   1.407       .  A
C670        H685   1.084       .  S
C671        C672   1.401       .  A
C671        C676   1.412       .  A
C672        C673   1.398       .  A
C672        H687   1.085       .  S
C673        C674   1.416       .  A
C673        C677   1.444       .  S
C674        C675   1.406       .  A
C675        C676   1.404       .  A
C675        H688   1.084       .  S
C676        C678   1.444       .  S
C677        N681   1.157       .  T
C678        N682   1.157       .  T
C679        N684   1.157       .  T
C680        N683   1.157       .  T
C689        C690   1.410       .  A
C689        C694   1.403       .  A
C689        C703   1.444       .  S
C690        C695   1.485       .  S
C690        C691   1.398       .  A
C691        C692   1.400       .  A
C691        H710   1.085       .  S
C692        C693   1.421       .  A
C692        C704   1.444       .  S
C693        C694   1.408       .  A
C694        H709   1.084       .  S
C695        C696   1.403       .  A
C695        C700   1.408       .  A
C696        C697   1.405       .  A
C696        H711   1.085       .  S
C697        C698   1.415       .  A
C697        C701   1.444       .  S
C698        C699   1.407       .  A
C699        C700   1.399       .  A
C699        H712   1.085       .  S
C700        C702   1.444       .  S
C701        N705   1.157       .  T
C702        N706   1.157       .  T
C703        N708   1.157       .  T
C704        N707   1.157       .  T
C713        C714   1.411       .  A
C713        C718   1.402       .  A
C713        C727   1.444       .  S
C714        C719   1.486       .  S
C714        C715   1.400       .  A
C715        C716   1.400       .  A
C715        H734   1.085       .  S
C716        C717   1.419       .  A
C716        C728   1.445       .  S
C717        C718   1.406       .  A
C718        H733   1.085       .  S
C719        C720   1.401       .  A
C719        C724   1.411       .  A
C720        C721   1.399       .  A
C720        H735   1.085       .  S
C721        C722   1.416       .  A
C721        C725   1.444       .  S
C722        C723   1.406       .  A
C723        C724   1.402       .  A
C723        H736   1.085       .  S
C724        C726   1.444       .  S
C725        N729   1.157       .  T
C726        N730   1.157       .  T
C727        N732   1.157       .  T
C737        C738   1.409   1_554  A
C737        C742   1.399       .  A
C737        C751   1.444       .  S
C738        C739   1.404       .  A
C739        C740   1.402       .  A
C740        C741   1.415       .  A
C740        C752   1.443       .  S
C741        C742   1.407   1_556  A
C742        H757   1.085       .  S
C743        C748   1.410   1_556  A
C744        H759   1.085       .  S
C745        C746   1.414       .  A
C745        C749   1.444       .  S
C746        C747   1.406   1_556  A
C747        C748   1.400       .  A
C747        H760   1.085       .  S
C748        C750   1.444       .  S
C749        N753   1.157       .  T
C750        N754   1.157       .  T
C751        N756   1.157       .  T
C761        C762   1.411   1_656  A
C761        C766   1.403       .  A
C761        C775   1.444       .  S
C762        C767   1.487       .  S
C762        C763   1.400       .  A
C763        C764   1.400   1_455  A
C763        H782   1.085       .  S
C764        C765   1.419       .  A
C764        C776   1.444       .  S
C765        C766   1.407   1_554  A
C766        H781   1.084       .  S
C767        C768   1.402       .  A
C767        C772   1.412   1_554  A
C768        C769   1.400       .  A
C768        H783   1.085       .  S
C769        C770   1.415       .  A
C769        C773   1.445       .  S
C770        C771   1.404   1_554  A
C771        C772   1.402       .  A
C771        H784   1.085       .  S
C772        C774   1.444       .  S
C773        N777   1.157       .  T
C774        N778   1.157       .  T
C775        N780   1.157       .  T
C776        N779   1.157       .  T
C785        C786   1.409       .  A
C785        C790   1.400       .  A
C785        C799   1.444       .  S
C786        C791   1.490       .  S
C786        C787   1.405   1_556  A
C787        C788   1.405       .  A
C787        H806   1.085       .  S
C788        C789   1.414   1_554  A
C788        C800   1.443       .  S
C789        C790   1.408       .  A
C790        H805   1.085       .  S
C791        C792   1.405   1_556  A
C791        C796   1.409       .  A
C792        C793   1.404       .  A
C792        H807   1.085       .  S
C793        C794   1.415   1_554  A
C793        C797   1.444       .  S
C794        C795   1.408       .  A
C795        C796   1.401       .  A
C795        H808   1.085       .  S
C796        C798   1.444       .  S
C797        N801   1.157       .  T
C798        N802   1.157       .  T
C800        N803   1.157       .  T
C809        C810   1.412       .  A
C809        C814   1.401       .  A
C810        C811   1.401       .  A
C811        C812   1.400       .  A
C811        H830   1.085       .  S
C812        C813   1.419       .  A
C812        C824   1.444       .  S
C813        C814   1.406       .  A
C814        H829   1.084       .  S
C815        C816   1.403       .  A
C815        C820   1.413       .  A
C816        C817   1.399       .  A
C816        H831   1.085       .  S
C817        C818   1.415       .  A
C817        C821   1.445       .  S
C818        C819   1.403       .  A
C819        C820   1.400       .  A
C819        H832   1.085       .  S
C821        N825   1.157       .  T
C822        N826   1.157       .  T
C823        N828   1.157       .  T
C824        N827   1.157       .  T
C833        C834   1.410       .  A
C833        C838   1.403       .  A
C833        C847   1.444       .  S
C834        C839   1.483       .  S
C834        C835   1.399       .  A
C835        C836   1.399       .  A
C835        H854   1.085       .  S
C836        C837   1.418       .  A
C836        C848   1.444       .  S
C837        C838   1.407       .  A
C838        H853   1.084       .  S
C839        C840   1.400       .  A
C839        C844   1.409       .  A
C840        C841   1.399       .  A
C840        H855   1.085       .  S
C841        C842   1.419       .  A
C841        C845   1.445       .  S
C842        C843   1.406       .  A
C843        C844   1.403       .  A
C843        H856   1.084       .  S
C844        C846   1.443       .  S
C845        N849   1.157       .  T
C846        N850   1.157       .  T
C847        N852   1.157       .  T
C848        N851   1.157       .  T
C857        C858   1.410       .  A
C857        C862   1.402       .  A
C857        C871   1.444       .  S
C858        C863   1.483       .  S
C858        C859   1.399       .  A
C859        C860   1.400       .  A
C859        H878   1.085       .  S
C860        C861   1.419       .  A
C860        C872   1.445       .  S
C861        C862   1.406       .  A
C862        H877   1.084       .  S
C863        C864   1.403       .  A
C863        C868   1.408       .  A
C864        C865   1.404       .  A
C864        H879   1.085       .  S
C865        C866   1.415       .  A
C865        C869   1.444       .  S
C866        C867   1.407       .  A
C867        C868   1.397       .  A
C867        H880   1.085       .  S
C868        C870   1.444       .  S
C869        N873   1.157       .  T
C870        N874   1.157       .  T
C871        N876   1.157       .  T
C872        N875   1.157       .  T
C881        C882   1.410       .  A
C881        C886   1.399       .  A
C881        C895   1.444       .  S
C882        C887   1.489   1_455  S
C882        C883   1.405       .  A
C883        C884   1.402       .  A
C883        H902   1.085       .  S
C884        C885   1.414       .  A
C884        C896   1.444       .  S
C885        C886   1.407       .  A
C886        H901   1.085       .  S
C887        C888   1.405       .  A
C887        C892   1.410   1_655  A
C888        C889   1.404       .  A
C888        H903   1.085       .  S
C889        C890   1.415       .  A
C889        C893   1.443       .  S
C890        C891   1.407       .  A
C891        C892   1.398   1_655  A
C891        H904   1.085       .  S
C892        C894   1.445       .  S
C893        N897   1.157       .  T
C894        N898   1.157       .  T
C895        N900   1.157   1_455  T
C896        N899   1.157       .  T
C905        C910   1.398       .  A
C905        C919   1.445       .  S
C906        C911   1.485   1_545  S
C906        C907   1.403   1_545  A
C907        C908   1.402       .  A
C907        H926   1.085       .  S
C908        C920   1.443       .  S
C909        C910   1.408       .  A
C910        H925   1.085       .  S
C911        C916   1.408       .  A
C912        H927   1.085       .  S
C913        C914   1.416       .  A
C914        C915   1.408       .  A
C915        C916   1.398       .  A
C915        H928   1.085       .  S
C916        C918   1.445       .  S
C917        N921   1.157       .  T
C918        N922   1.157       .  T
C919        N924   1.157       .  T
C920        N923   1.157       .  T
C929        C943   1.444       .  S
C930        C935   1.488       .  S
C930        C931   1.403       .  A
C931        C932   1.401       .  A
C931        H950   1.085       .  S
C932        C933   1.415       .  A
C932        C944   1.445       .  S
C933        C934   1.404       .  A
C935        C940   1.412       .  A
C936        C937   1.401       .  A
C936        H951   1.085       .  S
C937        C938   1.415       .  A
C937        C941   1.445       .  S
C939        C940   1.402       .  A
C939        H952   1.085       .  S
C940        C942   1.444       .  S
C941        N945   1.157       .  T
C942        N946   1.157       .  T
C943        N948   1.157       .  T
C944        N947   1.157       .  T
C953        C954   1.409       .  A
C953        C958   1.399       .  A
C953        C967   1.444       .  S
C954        C959   1.486       .  S
C954        C955   1.405       .  A
C955        C956   1.403       .  A
C955        H974   1.085       .  S
C956        C957   1.413       .  A
C956        C968   1.444       .  S
C957        C958   1.406       .  A
C958        H973   1.085       .  S
C959        C960   1.404       .  A
C959        C964   1.408       .  A
C960        C961   1.405       .  A
C960        H975   1.085       .  S
C961        C962   1.416       .  A
C961        C965   1.443       .  S
C962        C963   1.408       .  A
C963        C964   1.399       .  A
C963        H976   1.085       .  S
C964        C966   1.444       .  S
C965        N969   1.157       .  T
C966        N970   1.157       .  T
C967        N972   1.157       .  T
C968        N971   1.157       .  T
