geometry optimzed in LAMMPS
_audit_creation_date              2020-11-30 
_audit_creation_method            'lammps2cif' 
_symmetry_space_group_name_H-M    'P1' 
_symmetry_Int_Tables_number       1 
_symmetry_cell_setting            triclinic 
loop_ 
_symmetry_equiv_pos_as_xyz 
  x,y,z 
_cell_length_a                    43.81069726 
_cell_length_b                    44.684832529351894 
_cell_length_c                    41.92040737738928 
_cell_angle_alpha                 90.50898766456594 
_cell_angle_beta                  89.9007692033399 
_cell_angle_gamma                 90.19864512918062 
loop_ 
_atom_site_label 
_atom_site_type_symbol 
_atom_site_fract_x 
_atom_site_fract_y 
_atom_site_fract_z 
_atom_site_charge 
O1          O  0.52901840  0.47382503  0.04933247    -0.80200
O2          O  0.51267220  0.53727622  0.43036028    -0.80200
O3          O  0.54168548  0.46978068  0.47678558    -0.80200
O4          O  0.54833032  0.53824543  0.03254666    -0.80100
O5          O  0.51156407  0.47733148  0.43524605    -0.80300
O6          O  0.51444280  0.52928795  0.06899183    -0.80200
O7          O  0.54850844  0.54241696  0.46688440    -0.80200
O8          O  0.52082286  0.43170275  0.02247407    -0.80200
C9          C  0.53467629  0.44576415  0.04448936     1.09500
C10         C  0.54026115  0.54277056  0.43802068     1.09400
C11         C  0.53667910  0.46797560  0.44702322     1.09500
C12         C  0.54085397  0.53819659  0.06156053     1.09400
O13         O  0.45615880  0.52843820  0.03916542    -0.80200
O14         O  0.45069392  0.48089065  0.46540561    -0.80200
O15         O  0.46719846  0.46015543  0.03395576    -0.80200
O16         O  0.49147702  0.57443424  0.47052880    -0.80200
O17         O  0.45444298  0.54175513  0.46306678    -0.80200
O18         O  0.47539454  0.48444098  0.07929778    -0.80200
O19         O  0.48777406  0.56701612  0.03591002    -0.80100
O20         O  0.48244783  0.44467874  0.47311360    -0.80200
Co21       Co  0.49085189  0.50084980  0.04137461     1.51500
Co22       Co  0.48252748  0.50932689  0.45130239     1.51700
Co23       Co  0.50624338  0.46822439  0.50550537     1.51600
Co24       Co  0.51777902  0.55300909  0.00190794     1.51500
O25         O  0.49955984  0.51158494  0.99653570    -1.42100
C26         C  0.46191662  0.55594068  0.04393725     1.09400
C27         C  0.45699472  0.45351549  0.46276920     1.09500
C28         C  0.46129465  0.46423015  0.06398906     1.09500
C29         C  0.46410882  0.56839606  0.46262223     1.09400
C30         C  0.56740569  0.93546013  0.07123729     0.42400
N31         N  0.55546854  0.97164260  0.04025519     0.01300
C32         C  0.42061578  0.05223460  0.03599601    -0.06600
H33         H  0.40435593  0.94149838  0.01748997     0.06800
C34         C  0.47146307  0.94740244  0.41941514    -0.06900
Co35       Co  0.49635131  0.00052929  0.05865075     0.74200
N36         N  0.44479277  0.96670683  0.02900348    -0.26100
Co37       Co  0.44626232  0.99980763  0.99467666     0.74100
C38         C  0.44321362  0.93204221  0.42823664     0.42500
N39         N  0.54197365  0.97211549  0.44657324     0.00900
N40         N  0.45114616  0.96849589  0.46089185     0.01000
N41         N  0.45340438  0.05194699  0.07765458    -0.46900
H42         H  0.52291597  0.94119263  0.10031500     0.06800
N43         N  0.46375840  0.96649932  0.05341681     0.01300
N44         N  0.44881757  0.03369586  0.46222136     0.01100
C45         C  0.43674449  0.06845164  0.42960605     0.42700
N46         N  0.56171130  0.97253192  0.47033566    -0.25500
C47         C  0.53159950  0.05567526  0.08554417    -0.06500
N48         N  0.57706560  0.95178949  0.04618935    -0.46700
N49         N  0.42705033  0.05306580  0.45531193    -0.46900
C50         C  0.55999785  0.07133122  0.07792809     0.42400
N51         N  0.46097230  0.03170463  0.05576293     0.01300
N52         N  0.55967949  0.03742364  0.47197878    -0.25600
N53         N  0.53213773  0.96965313  0.06012816    -0.26100
N54         N  0.54001847  0.03732927  0.44814158     0.00900
H55         H  0.59984891  0.06384022  0.48213680     0.06800
H56         H  0.48087642  0.06152114  0.40043645     0.06900
N57         N  0.44206409  0.03134950  0.03127602    -0.26100
N58         N  0.47436945  0.96966420  0.44084461    -0.25700
N59         N  0.55204417  0.03680171  0.04292871     0.01300
C60         C  0.43133118  0.93161110  0.06334148     0.42700
C61         C  0.58279034  0.95133374  0.46488269    -0.07000
N62         N  0.47200922  0.03490621  0.44214504    -0.25700
H63         H  0.48663089  0.94332594  0.39948162     0.06900
N64         N  0.45631566  0.94599129  0.07477096    -0.46900
H65         H  0.60226802  0.94680621  0.47987253     0.06800
C66         C  0.57118724  0.07298631  0.43714671     0.42500
C67         C  0.53752974  0.94734471  0.08060460    -0.06500
Co68       Co  0.55767202  0.00542915  0.00618891     0.73800
N69         N  0.54830641  0.95146102  0.42475276    -0.46700
C70         C  0.42821335  0.06593785  0.06677691     0.42800
N71         N  0.57151792  0.05822977  0.05133454    -0.46700
Co72       Co  0.50714723  0.00358065  0.44388337     0.73900
C73         C  0.46662238  0.05643155  0.42077981    -0.07000
C74         C  0.42370954  0.94535701  0.03297328    -0.06500
N75         N  0.52871993  0.03466191  0.06277221    -0.26100
N76         N  0.43176271  0.94653225  0.45401519    -0.46800
H77         H  0.40154367  0.05635320  0.02032831     0.06800
C78         C  0.58026470  0.05923901  0.46719368    -0.07000
Cl79       Cl  0.50190126  0.00249538  0.00049452    -0.50000
C80         C  0.57369778  0.93733220  0.43464433     0.42600
H81         H  0.51647930  0.05841093  0.10576148     0.06800
N82         N  0.54615708  0.05813053  0.42673015    -0.46700
C83         C  0.93662979  0.43218618  0.07364816     0.42400
N84         N  0.97218749  0.44548888  0.04132700     0.01300
C85         C  0.05129290  0.57990281  0.03705452    -0.06600
H86         H  0.93599096  0.59194860  0.02609795     0.06800
C87         C  0.94264047  0.53177350  0.41927506    -0.06900
Co88       Co  0.00153432  0.50354909  0.06046049     0.74200
N89         N  0.96422552  0.55349910  0.03432906    -0.26100
Co90       Co  0.99682894  0.55448977  0.99814799     0.74100
C91         C  0.92676744  0.55938049  0.42777059     0.42500
N92         N  0.96889444  0.46307772  0.44656286     0.00900
N93         N  0.96301404  0.55184436  0.46138103     0.01000
N94         N  0.05387395  0.54702931  0.07774245    -0.46900
H95         H  0.94285859  0.47506956  0.10409233     0.06800
N96         N  0.96605057  0.53438010  0.05808898     0.01300
N97         N  0.02956282  0.55625622  0.46026073     0.01100
C98         C  0.06489452  0.56916996  0.42757052     0.42700
N99         N  0.97049964  0.44407264  0.47039239    -0.25500
C100        C  0.05933622  0.46845699  0.08337896    -0.06500
N101        N  0.95254240  0.42366296  0.04748908    -0.46700
N102        N  0.04938079  0.57781621  0.45389483    -0.46900
C103        C  0.07541625  0.44148968  0.07265880     0.42400
N104        N  0.03232823  0.53935116  0.05699681    -0.02000
N105        N  0.03687068  0.44828238  0.46867611    -0.25600
N106        N  0.97062708  0.46772592  0.06221275    -0.26100
N107        N  0.03531375  0.46761823  0.44513566     0.00900
H108        H  0.06702474  0.41140082  0.47817226     0.06800
H109        H  0.05815853  0.52608395  0.39746320     0.06900
N110        N  0.03024561  0.55841303  0.03319472    -0.26100
N111        N  0.96465853  0.52915285  0.44110011    -0.25700
N112        N  0.03863674  0.45054640  0.04044419     0.01300
C113        C  0.92935607  0.56363078  0.07135353     0.42700
C114        C  0.94876777  0.42314999  0.46665295    -0.07000
N115        N  0.03082450  0.53388382  0.43959055    -0.25700
H116        H  0.93961622  0.51708877  0.39888584     0.06900
N117        N  0.94589398  0.53992023  0.08092949    -0.46900
H118        H  0.94515089  0.40419399  0.48207476     0.06800
C119        C  0.07384332  0.44027268  0.43326651     0.42500
C120        C  0.94862753  0.46146831  0.08350347    -0.06500
Co121      Co  0.00530140  0.44544189  0.00545493     0.73800
N122        N  0.94703971  0.45610912  0.42602932    -0.46700
C123        C  0.06697512  0.57232104  0.06653138     0.42800
N124        N  0.06113961  0.43163189  0.04606677    -0.46700
Co125      Co  0.99994961  0.49828790  0.44254531     0.73900
C126        C  0.05253988  0.53995350  0.41789406    -0.07000
C127        C  0.94149363  0.57268564  0.04038613    -0.06500
N128        N  0.03703781  0.47234271  0.06182887    -0.26100
N129        N  0.94085844  0.57079254  0.45400323    -0.46800
H130        H  0.05428017  0.59902421  0.02172194     0.06800
C131        C  0.06060283  0.43001201  0.46333927    -0.07000
Cl132      Cl  0.00108157  0.49998412  0.00194503    -0.50000
C133        C  0.93320638  0.43125725  0.43720590     0.42600
H134        H  0.06309368  0.48216967  0.10440204     0.06800
N135        N  0.05682004  0.46349707  0.42338574    -0.46700
C136        C  0.28391354  0.28225749  0.22269488     0.45400
H137        H  0.28568012  0.28216958  0.19624886    -0.03600
C138        C  0.27995507  0.28193693  0.28443963     0.45500
H139        H  0.27816419  0.28159590  0.31089077    -0.03600
C140        C  0.30370100  0.30643306  0.23911470    -0.17300
C141        C  0.25148653  0.28871158  0.23502333    -0.17000
C142        C  0.29417072  0.25276139  0.23762748    -0.17400
C143        C  0.30136584  0.30640293  0.27188309    -0.17400
C144        C  0.24950360  0.28828008  0.26782798    -0.17000
C145        C  0.29263218  0.25272480  0.27031079    -0.17300
C146        C  0.71379539  0.28149143  0.22176502     0.45400
H147        H  0.71316238  0.27848182  0.19542307    -0.03600
C148        C  0.71510526  0.28889708  0.28327973     0.45500
H149        H  0.71565584  0.29218047  0.30958805    -0.03600
C150        C  0.68924607  0.30295134  0.23435989    -0.17300
C151        C  0.70832772  0.25248066  0.24031070    -0.17000
C152        C  0.74399046  0.29486932  0.23394276    -0.17400
C153        C  0.69004128  0.30714297  0.26684846    -0.17400
C154        C  0.70899113  0.25639667  0.27289474    -0.17000
C155        C  0.74470388  0.29838675  0.26655969    -0.17300
C156        C  0.28605877  0.71722479  0.22004150     0.45400
H157        H  0.28804395  0.71468597  0.19377094    -0.03600
C158        C  0.28257139  0.72383258  0.28148780     0.45500
H159        H  0.28099982  0.72650900  0.30782641    -0.03600
C160        C  0.30746269  0.69641666  0.23846073    -0.17300
C161        C  0.29484489  0.74876197  0.23164264    -0.17000
C162        C  0.25401674  0.71072317  0.23337782    -0.17400
C163        C  0.30599346  0.70027868  0.27090340    -0.17400
C164        C  0.29282693  0.75238209  0.26423608    -0.17000
C165        C  0.25253050  0.71331696  0.26614001    -0.17300
C166        C  0.71755954  0.72553146  0.21991039     0.45400
H167        H  0.71592352  0.72742376  0.19356483    -0.03600
C168        C  0.72100683  0.72131827  0.28158263     0.45500
H169        H  0.72231368  0.71935736  0.30795943    -0.03600
C170        C  0.69472741  0.70319571  0.23399966    -0.17300
C171        C  0.74875286  0.71419616  0.23165420    -0.17000
C172        C  0.71089425  0.75509582  0.23750137    -0.17400
C173        C  0.69637810  0.70114384  0.26660175    -0.17400
C174        C  0.75056004  0.71231643  0.26439037    -0.17000
C175        C  0.71304044  0.75288462  0.27016571    -0.17300
C176        C  0.22892015  0.69801978  0.21308879    -0.03200
C177        C  0.19805249  0.70273567  0.22099823    -0.05800
C178        C  0.17480635  0.68834092  0.20381079    -0.20900
C179        C  0.18180922  0.66971114  0.17772055     0.24800
C180        C  0.21251995  0.66606258  0.16887410    -0.18500
C181        C  0.23571470  0.68011820  0.18626715    -0.08400
C182        C  0.15700493  0.65275350  0.16150022    -0.18700
C183        C  0.15848513  0.64438968  0.13061301    -0.23500
C184        C  0.13457104  0.62594478  0.11490572     0.26900
C185        C  0.12824780  0.63049232  0.08255298    -0.20300
C186        C  0.10629258  0.61305337  0.06687030    -0.09900
C187        C  0.09068020  0.59023440  0.08308531    -0.10500
C188        C  0.09753214  0.58515278  0.11529443    -0.03400
C189        C  0.11916169  0.60296862  0.13114829    -0.18500
H190        H  0.19186708  0.71715429  0.24083165     0.10600
H191        H  0.15128577  0.69161750  0.21102732     0.10600
H192        H  0.21884909  0.65139200  0.14930498     0.10300
H193        H  0.25897108  0.67596663  0.17907107     0.11400
H194        H  0.13668262  0.64748180  0.17527751     0.11500
H195        H  0.17724543  0.65224853  0.11588815     0.13400
H196        H  0.14013096  0.64779742  0.06946331     0.09900
H197        H  0.10178224  0.61732858  0.04195292     0.12000
H198        H  0.08595842  0.56761620  0.12830713     0.08600
H199        H  0.12421111  0.59839676  0.15589836     0.11400
C200        C  0.08746265  0.58824287  0.41088799    -0.03200
C201        C  0.09963735  0.57971428  0.38118477    -0.05800
C202        C  0.12004338  0.59852737  0.36512428    -0.20900
C203        C  0.12897504  0.62621234  0.37864720     0.24800
C204        C  0.11670447  0.63462681  0.40832635    -0.18500
C205        C  0.09629114  0.61586067  0.42431390    -0.08400
C206        C  0.14997330  0.64741452  0.36216018    -0.18700
C207        C  0.16997607  0.63884780  0.33940888    -0.23500
C208        C  0.19100758  0.65926567  0.32180300     0.26900
C209        C  0.21020224  0.64640354  0.29863161    -0.20300
C210        C  0.22997718  0.66407427  0.28071189    -0.09900
C211        C  0.23096953  0.69517501  0.28533269    -0.10500
C212        C  0.21255923  0.70827816  0.30892354    -0.03400
C213        C  0.19249964  0.69055353  0.32689614    -0.18500
H214        H  0.09304133  0.55874332  0.37002757     0.10600
H215        H  0.12804443  0.59152265  0.34183516     0.10600
H216        H  0.12294382  0.65585352  0.41922607     0.10300
H217        H  0.08724765  0.62310988  0.44715547     0.11400
H218        H  0.14915158  0.67059744  0.36987139     0.11500
H219        H  0.17146656  0.61525779  0.33328633     0.13400
H220        H  0.20986611  0.62247229  0.29424156     0.09900
H221        H  0.24463106  0.65344023  0.26315083     0.12000
H222        H  0.21346393  0.73221778  0.31312828     0.08600
H223        H  0.17839661  0.70162879  0.34449477     0.11400
C224        C  0.22547701  0.30389216  0.28628395    -0.03200
C225        C  0.21000200  0.28913103  0.31078414    -0.05800
C226        C  0.18967217  0.30482844  0.33043584    -0.20900
C227        C  0.18489004  0.33566074  0.32629819     0.24800
C228        C  0.20035876  0.35028399  0.30134978    -0.18500
C229        C  0.22063953  0.33457604  0.28181553    -0.08400
C230        C  0.16379557  0.35143768  0.34862818    -0.18700
C231        C  0.16107488  0.38143034  0.35077343    -0.23500
C232        C  0.13964703  0.39643870  0.37310218     0.26900
C233        C  0.12764387  0.42433361  0.36474856    -0.20300
C234        C  0.10672219  0.43881339  0.38468032    -0.09900
C235        C  0.09767364  0.42582183  0.41359719    -0.10500
C236        C  0.11060883  0.39848183  0.42262925    -0.03400
C237        C  0.13141553  0.38388987  0.40257355    -0.18500
H238        H  0.21398414  0.26557576  0.31493848     0.10600
H239        H  0.17808239  0.29294730  0.34936351     0.10600
H240        H  0.19723257  0.37377343  0.29663360     0.10300
H241        H  0.23316104  0.34656649  0.26361887     0.11400
H242        H  0.14991959  0.33752812  0.36408474     0.11500
H243        H  0.17404209  0.39587390  0.33515334     0.13400
H244        H  0.13396565  0.43464615  0.34237909     0.09900
H245        H  0.09731156  0.46000678  0.37722328     0.12000
H246        H  0.10436749  0.38807892  0.44492902     0.08600
H247        H  0.14112445  0.36295843  0.41032973     0.11400
C248        C  0.09926846  0.42429646  0.08932216    -0.03200
C249        C  0.11799269  0.40462029  0.07189831    -0.05800
C250        C  0.13954110  0.38694975  0.08742099    -0.20900
C251        C  0.14218839  0.38787195  0.12075206     0.24800
C252        C  0.12366103  0.40779029  0.13826947    -0.18500
C253        C  0.10256742  0.42605973  0.12261902    -0.08400
C254        C  0.16529419  0.36864239  0.13630830    -0.18700
C255        C  0.16103582  0.35604383  0.16507197    -0.23500
C256        C  0.18440908  0.33693551  0.18055928     0.26900
C257        C  0.17516511  0.31481185  0.20217565    -0.20300
C258        C  0.19681777  0.29785025  0.21860468    -0.09900
C259        C  0.22818850  0.30316639  0.21427076    -0.10500
C260        C  0.23737578  0.32483271  0.19208174    -0.03400
C261        C  0.21579935  0.34154572  0.17547903    -0.18500
H262        H  0.11596989  0.40292777  0.04619727     0.10600
H263        H  0.15380552  0.37205581  0.07339113     0.10600
H264        H  0.12571762  0.40951398  0.16394832     0.10300
H265        H  0.08834646  0.44098616  0.13662492     0.11400
H266        H  0.18568309  0.36329343  0.12267029     0.11500
H267        H  0.13929212  0.35892521  0.17719613     0.13400
H268        H  0.15112994  0.31086779  0.20659906     0.09900
H269        H  0.18907953  0.28121988  0.23545511     0.12000
H270        H  0.26128047  0.32997837  0.18858318     0.08600
H271        H  0.22384199  0.35893489  0.15971463     0.11400
C272        C  0.91474743  0.41281774  0.09100788    -0.03200
C273        C  0.91306423  0.38199932  0.08415247    -0.05800
C274        C  0.89373626  0.36331558  0.10175899    -0.20900
C275        C  0.87510987  0.37513139  0.12601720     0.24800
C276        C  0.87641860  0.40606442  0.13254480    -0.18500
C277        C  0.89612572  0.42466684  0.11530032    -0.08400
C278        C  0.85531820  0.35464129  0.14482692    -0.18700
C279        C  0.82782796  0.36298658  0.15611332    -0.23500
C280        C  0.80719776  0.34284247  0.17425000     0.26900
C281        C  0.77559135  0.34658128  0.17110619    -0.20300
C282        C  0.75527264  0.32971675  0.18935951    -0.09900
C283        C  0.76611012  0.30925148  0.21183097    -0.10500
C284        C  0.79775065  0.30499452  0.21473656    -0.03400
C285        C  0.81818300  0.32156032  0.19596418    -0.18500
H286        H  0.92719576  0.37219416  0.06561938     0.10600
H287        H  0.89322936  0.33957275  0.09633806     0.10600
H288        H  0.86280899  0.41581740  0.15151415     0.10300
H289        H  0.89685993  0.44830260  0.12111900     0.11400
H290        H  0.86275906  0.33167080  0.14780781     0.11500
H291        H  0.81916827  0.38501045  0.15023120     0.13400
H292        H  0.76657831  0.36292595  0.15470686     0.09900
H293        H  0.73103413  0.33370058  0.18691504     0.12000
H294        H  0.80659793  0.28945807  0.23208811     0.08600
H295        H  0.84246291  0.31857593  0.19935589     0.11400
C296        C  0.76843290  0.31515024  0.28429805    -0.03200
C297        C  0.77553032  0.34472267  0.27615140    -0.05800
C298        C  0.79758902  0.36064792  0.29323931    -0.20900
C299        C  0.81236728  0.34765437  0.31932448     0.24800
C300        C  0.80484074  0.31811424  0.32784495    -0.18500
C301        C  0.78284540  0.30209147  0.31051512    -0.08400
C302        C  0.83597767  0.36552179  0.33623304    -0.18700
C303        C  0.84357056  0.36155169  0.36704183    -0.23500
C304        C  0.86639078  0.38027184  0.38456538     0.26900
C305        C  0.87386770  0.37249743  0.41600958    -0.20300
C306        C  0.89529126  0.38918177  0.43341513    -0.09900
C307        C  0.90962668  0.41411221  0.41972770    -0.10500
C308        C  0.90184804  0.42228169  0.38859201    -0.03400
C309        C  0.88056398  0.40562374  0.37116714    -0.18500
H310        H  0.76387113  0.35556578  0.25668178     0.10600
H311        H  0.80288452  0.38338440  0.28628240     0.10600
H312        H  0.81621824  0.30711761  0.34735518     0.10300
H313        H  0.77729905  0.27936738  0.31730268     0.11400
H314        H  0.84635546  0.38329763  0.32257749     0.11500
H315        H  0.83216230  0.34408912  0.38045284     0.13400
H316        H  0.86322397  0.35330108  0.42712544     0.09900
H317        H  0.90063468  0.38246747  0.45750357     0.12000
H318        H  0.91248321  0.44146987  0.37747127     0.08600
H319        H  0.87554447  0.41312200  0.34736962     0.11400
C320        C  0.77484151  0.69666404  0.28228751    -0.03200
C321        C  0.79029002  0.71161120  0.30695281    -0.05800
C322        C  0.81135236  0.69638087  0.32583959    -0.20900
C323        C  0.81694963  0.66572294  0.32092449     0.24800
C324        C  0.80163434  0.65085632  0.29576129    -0.18500
C325        C  0.78062606  0.66617264  0.27683501    -0.08400
C326        C  0.83887490  0.65044150  0.34257922    -0.18700
C327        C  0.84051183  0.62050509  0.34611067    -0.23500
C328        C  0.86232274  0.60552981  0.36800982     0.26900
C329        C  0.87093448  0.57596479  0.36117208    -0.20300
C330        C  0.89141020  0.56093086  0.38084580    -0.09900
C331        C  0.90366684  0.57500365  0.40812573    -0.10500
C332        C  0.89440941  0.60431599  0.41559745    -0.03400
C333        C  0.87394188  0.61946541  0.39576399    -0.18500
H334        H  0.78581405  0.73504769  0.31176188     0.10600
H335        H  0.82286466  0.70848628  0.34484360     0.10600
H336        H  0.80568236  0.62751247  0.29041934     0.10300
H337        H  0.76847594  0.65409934  0.25824712     0.11400
H338        H  0.85393188  0.66469625  0.35658919     0.11500
H339        H  0.82581897  0.60597755  0.33205698     0.13400
H340        H  0.86207978  0.56453890  0.34022277     0.09900
H341        H  0.89767452  0.53827407  0.37443843     0.12000
H342        H  0.90321677  0.61565074  0.43660357     0.08600
H343        H  0.86704834  0.64186498  0.40248782     0.11400
C344        C  0.77054461  0.69961177  0.20914632    -0.03200
C345        C  0.75902197  0.68231428  0.18369682    -0.05800
C346        C  0.77863042  0.66679127  0.16335709    -0.20900
C347        C  0.81018322  0.66758949  0.16833955     0.24800
C348        C  0.82202635  0.68526723  0.19338352    -0.18500
C349        C  0.80232585  0.70142578  0.21344355    -0.08400
C350        C  0.82987152  0.65019337  0.14637465    -0.18700
C351        C  0.85566255  0.63663125  0.15566058    -0.23500
C352        C  0.87379344  0.61762130  0.13355060     0.26900
C353        C  0.89024375  0.59337154  0.14565117    -0.20300
C354        C  0.90754757  0.57516676  0.12526208    -0.09900
C355        C  0.90912392  0.58126864  0.09246489    -0.10500
C356        C  0.89265070  0.60551497  0.08037479    -0.03400
C357        C  0.87522712  0.62355909  0.10068116    -0.18500
H358        H  0.73471009  0.67999297  0.17988868     0.10600
H359        H  0.76903761  0.65343574  0.14411786     0.10600
H360        H  0.84640937  0.68688962  0.19720991     0.10300
H361        H  0.81187013  0.71505399  0.23245766     0.11400
H362        H  0.82132761  0.64631179  0.12237974     0.11500
H363        H  0.86250937  0.63780869  0.18054382     0.13400
H364        H  0.88958206  0.58843562  0.17090271     0.09900
H365        H  0.92018239  0.55671419  0.13527386     0.12000
H366        H  0.89344585  0.61082458  0.05524968     0.08600
H367        H  0.86347627  0.64252891  0.09064863     0.11400
C368        C  0.69949605  0.23340752  0.29624538    -0.03200
C369        C  0.71189997  0.20448326  0.29549601    -0.05800
C370        C  0.70102934  0.18253999  0.31636202    -0.20900
C371        C  0.67715483  0.18904141  0.33768768     0.24800
C372        C  0.66560580  0.21833271  0.33916678    -0.18500
C373        C  0.67678809  0.24031560  0.31874268    -0.08400
C374        C  0.66400931  0.16496977  0.35770420    -0.18700
C375        C  0.63373662  0.16307516  0.36297996    -0.23500
C376        C  0.61895483  0.13904303  0.38176710     0.26900
C377        C  0.58876981  0.13097836  0.37448121    -0.20300
C378        C  0.57342721  0.10939557  0.39238470    -0.09900
C379        C  0.58774718  0.09583493  0.41843356    -0.10500
C380        C  0.61795421  0.10397148  0.42591254    -0.03400
C381        C  0.63350677  0.12528369  0.40764411    -0.18500
H382        H  0.72966886  0.19883439  0.27851461     0.10600
H383        H  0.71049651  0.16020001  0.31508190     0.10600
H384        H  0.64774520  0.22419432  0.35595487     0.10300
H385        H  0.66691301  0.26249526  0.31977702     0.11400
H386        H  0.67904618  0.14745531  0.36610153     0.11500
H387        H  0.61875315  0.17903865  0.35149958     0.13400
H388        H  0.57702060  0.14139032  0.35477145     0.09900
H389        H  0.55018536  0.10356469  0.38605185     0.12000
H390        H  0.62965595  0.09381981  0.44576450     0.08600
H391        H  0.65655938  0.13146235  0.41427979     0.11400
C392        C  0.69591505  0.22576288  0.22352822    -0.03200
C393        C  0.71135752  0.21381931  0.19704416    -0.05800
C394        C  0.69776140  0.19144635  0.17824753    -0.20900
C395        C  0.66820072  0.18107951  0.18517800     0.24800
C396        C  0.65319166  0.19241457  0.21244764    -0.18500
C397        C  0.66681018  0.21472862  0.23120190    -0.08400
C398        C  0.65367254  0.15881372  0.16328981    -0.18700
C399        C  0.62316185  0.15597678  0.16019742    -0.23500
C400        C  0.60787492  0.13428245  0.13830207     0.26900
C401        C  0.57754257  0.12620243  0.14482319    -0.20300
C402        C  0.56192715  0.10608075  0.12502990    -0.09900
C403        C  0.57620861  0.09371069  0.09798492    -0.10500
C404        C  0.60634921  0.10227502  0.09090040    -0.03400
C405        C  0.62208972  0.12235263  0.11085841    -0.18500
H406        H  0.73367232  0.22232235  0.19050781     0.10600
H407        H  0.70994968  0.18293557  0.15759570     0.10600
H408        H  0.63085064  0.18437829  0.21933588     0.10300
H409        H  0.65408669  0.22412597  0.25103533     0.11400
H410        H  0.66870047  0.14512086  0.14870270     0.11500
H411        H  0.60827624  0.16998418  0.17459844     0.13400
H412        H  0.56592088  0.13529539  0.16556609     0.09900
H413        H  0.53865586  0.10023658  0.13106136     0.12000
H414        H  0.61786109  0.09326928  0.07006242     0.08600
H415        H  0.64509768  0.12872214  0.10439884     0.11400
C416        C  0.31188892  0.23077931  0.21872355    -0.03200
C417        C  0.34377421  0.23030590  0.22104096    -0.05800
C418        C  0.36071438  0.20969315  0.20318477    -0.20900
C419        C  0.34617315  0.18927531  0.18249153     0.24800
C420        C  0.31403001  0.18982465  0.18032694    -0.18500
C421        C  0.29711086  0.21064421  0.19812514    -0.08400
C422        C  0.36547093  0.16750335  0.16447581    -0.18700
C423        C  0.35587913  0.15157286  0.13890086    -0.23500
C424        C  0.37547478  0.13007956  0.12083128     0.26900
C425        C  0.40236114  0.11775491  0.13356153    -0.20300
C426        C  0.41965428  0.09727118  0.11576946    -0.09900
C427        C  0.41038167  0.08838745  0.08506045    -0.10500
C428        C  0.38352463  0.10055061  0.07240953    -0.03400
C429        C  0.36626808  0.12106453  0.09014055    -0.18500
H430        H  0.35550714  0.24594328  0.23669086     0.10600
H431        H  0.38534821  0.20977203  0.20548432     0.10600
H432        H  0.30171731  0.17406810  0.16544701     0.10300
H433        H  0.27245339  0.21078607  0.19618552     0.11400
H434        H  0.38903812  0.16564922  0.17205297     0.11500
H435        H  0.33306605  0.15514525  0.12972465     0.13400
H436        H  0.40993216  0.12322883  0.15743126     0.09900
H437        H  0.44011829  0.08807770  0.12626013     0.12000
H438        H  0.37564246  0.09416986  0.04886838     0.08600
H439        H  0.34559311  0.12996148  0.07977909     0.11400
C440        C  0.41736278  0.08879899  0.41083641    -0.03200
C441        C  0.38554661  0.08865925  0.41505977    -0.05800
C442        C  0.36690716  0.10673155  0.39630248    -0.20900
C443        C  0.37971725  0.12587081  0.37353493     0.24800
C444        C  0.41161230  0.12617737  0.36941186    -0.18500
C445        C  0.43023137  0.10768639  0.38780062    -0.08400
C446        C  0.35919682  0.14469100  0.35399618    -0.18700
C447        C  0.36728388  0.17209741  0.34392612    -0.23500
C448        C  0.34648593  0.19188013  0.32588187     0.26900
C449        C  0.34958584  0.22292947  0.32970070    -0.20300
C450        C  0.33124136  0.24243345  0.31244338    -0.09900
C451        C  0.30979245  0.23133700  0.29044369    -0.10500
C452        C  0.30653966  0.20024268  0.28653330    -0.03400
C453        C  0.32467620  0.18062610  0.30419242    -0.18500
H454        H  0.37498187  0.07412983  0.43246106     0.10600
H455        H  0.34241191  0.10596016  0.39976955     0.10600
H456        H  0.42215854  0.14019541  0.35154778     0.10300
H457        H  0.45467080  0.10818463  0.38398671     0.11400
H458        H  0.33612320  0.13664822  0.34978613     0.11500
H459        H  0.38924068  0.18130743  0.35103671     0.13400
H460        H  0.36633984  0.23213904  0.34606676     0.09900
H461        H  0.33456355  0.26629201  0.31559835     0.12000
H462        H  0.29026638  0.19120415  0.26956374     0.08600
H463        H  0.32220440  0.15677769  0.30018889     0.11400
C464        C  0.58634237  0.91297991  0.08785391    -0.03200
C465        C  0.61579558  0.90616836  0.07664536    -0.05800
C466        C  0.63431919  0.88594562  0.09296512    -0.20900
C467        C  0.62398255  0.87223974  0.12100926     0.24800
C468        C  0.59412865  0.87844579  0.13172254    -0.18500
C469        C  0.57560253  0.89864575  0.11537661    -0.08400
C470        C  0.64456626  0.85102147  0.13781479    -0.18700
C471        C  0.64172145  0.84448582  0.16903451    -0.23500
C472        C  0.66079442  0.82223739  0.18613081     0.26900
C473        C  0.64890411  0.80963358  0.21407304    -0.20300
C474        C  0.66532297  0.78823820  0.23088604    -0.09900
C475        C  0.69456354  0.77952724  0.22075464    -0.10500
C476        C  0.70668999  0.79208788  0.19287840    -0.03400
C477        C  0.69007035  0.81339970  0.17574686    -0.18500
H478        H  0.62467513  0.91668486  0.05536262     0.10600
H479        H  0.65699062  0.88130462  0.08387848     0.10600
H480        H  0.58470018  0.86749978  0.15243928     0.10300
H481        H  0.55290482  0.90304353  0.12442418     0.11400
H482        H  0.66262919  0.84070662  0.12386774     0.11500
H483        H  0.62383839  0.85519265  0.18289713     0.13400
H484        H  0.62639807  0.81583737  0.22255170     0.09900
H485        H  0.65477446  0.77797253  0.25144454     0.12000
H486        H  0.72900283  0.78532658  0.18434887     0.08600
H487        H  0.70033899  0.82297024  0.15469139     0.11400
C488        C  0.58950491  0.91374965  0.41607617    -0.03200
C489        C  0.57389066  0.89820665  0.39179891    -0.05800
C490        C  0.58859769  0.87593774  0.37397200    -0.20900
C491        C  0.61939570  0.86928745  0.37948058     0.24800
C492        C  0.63511378  0.88490511  0.40370255    -0.18500
C493        C  0.62021606  0.90682533  0.42196580    -0.08400
C494        C  0.63403399  0.84510638  0.36050398    -0.18700
C495        C  0.66379447  0.84532673  0.35244144    -0.23500
C496        C  0.67757496  0.82122729  0.33264803     0.26900
C497        C  0.70009937  0.82837915  0.31007444    -0.20300
C498        C  0.71228851  0.80614011  0.29010696    -0.09900
C499        C  0.70254766  0.77632020  0.29292171    -0.10500
C500        C  0.68106396  0.76896648  0.31648543    -0.03400
C501        C  0.66856036  0.79120765  0.33606006    -0.18500
H502        H  0.55017157  0.90304704  0.38681756     0.10600
H503        H  0.57596025  0.86404107  0.35560474     0.10600
H504        H  0.65869116  0.87980207  0.40898716     0.10300
H505        H  0.63282617  0.91851074  0.44046511     0.11400
H506        H  0.61936982  0.82737947  0.35128936     0.11500
H507        H  0.67789637  0.86455358  0.35861818     0.13400
H508        H  0.70759201  0.85133348  0.30727120     0.09900
H509        H  0.72895002  0.81222325  0.27216458     0.12000
H510        H  0.67309455  0.74613700  0.31901225     0.08600
H511        H  0.65180840  0.78491085  0.35381199     0.11400
C512        C  0.30696053  0.77727064  0.28289290    -0.03200
C513        C  0.29097521  0.79032382  0.30844387    -0.05800
C514        C  0.30525975  0.81128174  0.32853463    -0.20900
C515        C  0.33600746  0.81918095  0.32389211     0.24800
C516        C  0.35185875  0.80641135  0.29789913    -0.18500
C517        C  0.33758296  0.78544142  0.27790352    -0.08400
C518        C  0.35057924  0.84105706  0.34625523    -0.18700
C519        C  0.38095279  0.84226976  0.35149625    -0.23500
C520        C  0.39626599  0.86463620  0.37272101     0.26900
C521        C  0.42759434  0.86997366  0.36832269    -0.20300
C522        C  0.44294224  0.89148611  0.38669473    -0.09900
C523        C  0.42737676  0.90794371  0.41025290    -0.10500
C524        C  0.39632714  0.90184167  0.41567635    -0.03400
C525        C  0.38085332  0.88046382  0.39707062    -0.18500
H526        H  0.26752220  0.78395181  0.31310191     0.10600
H527        H  0.29243789  0.82086932  0.34821887     0.10600
H528        H  0.37527046  0.81245853  0.29282560     0.10300
H529        H  0.35083394  0.77496950  0.25909283     0.11400
H530        H  0.33553283  0.85631510  0.35890541     0.11500
H531        H  0.39573530  0.82662161  0.33902197     0.13400
H532        H  0.44017463  0.85784172  0.35010341     0.09900
H533        H  0.46697972  0.89530950  0.38227317     0.12000
H534        H  0.38382814  0.91401204  0.43391514     0.08600
H535        H  0.35699440  0.87639536  0.40204693     0.11400
C536        C  0.41194438  0.91102834  0.08201256    -0.03200
C537        C  0.38136160  0.90591404  0.07330082    -0.05800
C538        C  0.36264567  0.88742712  0.09165918    -0.20900
C539        C  0.37427747  0.87317857  0.11863355     0.24800
C540        C  0.40485782  0.87825378  0.12742070    -0.18500
C541        C  0.42346247  0.89715267  0.10934481    -0.08400
C542        C  0.35389643  0.85377696  0.13771079    -0.18700
C543        C  0.36407741  0.82883394  0.15172234    -0.23500
C544        C  0.34428723  0.80884944  0.17072997     0.26900
C545        C  0.35100694  0.77826269  0.17108192    -0.20300
C546        C  0.33415829  0.75887223  0.19012662    -0.09900
C547        C  0.31069396  0.76974344  0.20987670    -0.10500
C548        C  0.30365775  0.80034535  0.20943263    -0.03400
C549        C  0.32025329  0.81979450  0.18984751    -0.18500
H550        H  0.37160931  0.91656621  0.05263598     0.10600
H551        H  0.33909395  0.88402262  0.08462380     0.10600
H552        H  0.41423206  0.86811878  0.14860319     0.10300
H553        H  0.44684084  0.90093784  0.11674885     0.11400
H554        H  0.32975499  0.85918146  0.13866662     0.11500
H555        H  0.38754449  0.82189653  0.14779113     0.13400
H556        H  0.36948966  0.76936646  0.15669224     0.09900
H557        H  0.34017665  0.73543502  0.19008224     0.12000
H558        H  0.28565656  0.80917149  0.22449695     0.08600
H559        H  0.31495821  0.84343413  0.19049936     0.11400
C560        C  0.32518892  0.68459028  0.29425821    -0.03200
C561        C  0.32755089  0.65335455  0.29366421    -0.05800
C562        C  0.34392845  0.63869506  0.31735905    -0.20900
C563        C  0.35825069  0.65496590  0.34200700     0.24800
C564        C  0.35601727  0.68638436  0.34232876    -0.18500
C565        C  0.33960359  0.70099131  0.31862915    -0.08400
C566        C  0.37408984  0.63805516  0.36734473    -0.18700
C567        C  0.39340586  0.65022144  0.38885154    -0.23500
C568        C  0.40972308  0.63145634  0.41218377     0.26900
C569        C  0.43983906  0.63874728  0.42052401    -0.20300
C570        C  0.45715972  0.61905744  0.43878674    -0.09900
C571        C  0.44447200  0.59187063  0.44913244    -0.10500
C572        C  0.41352241  0.58588863  0.44306563    -0.03400
C573        C  0.39625592  0.60556035  0.42489016    -0.18500
H574        H  0.31601193  0.64026564  0.27544038     0.10600
H575        H  0.34507847  0.61448236  0.31665685     0.10600
H576        H  0.36609126  0.69983469  0.36110894     0.10300
H577        H  0.33789489  0.72516620  0.31950772     0.11400
H578        H  0.37057221  0.61397558  0.36735820     0.11500
H579        H  0.39965315  0.67367618  0.38766011     0.13400
H580        H  0.45049567  0.65885341  0.41141396     0.09900
H581        H  0.48092168  0.62434849  0.44325869     0.12000
H582        H  0.40295808  0.56539889  0.45127451     0.08600
H583        H  0.37263422  0.60001435  0.42003010     0.11400
C584        C  0.43987341  0.57418343  0.06240847    -0.03200
C585        C  0.41007027  0.56357357  0.06764742    -0.05800
C586        C  0.39048661  0.57860671  0.08861511    -0.20900
C587        C  0.40046035  0.60415442  0.10528133     0.24800
C588        C  0.42980779  0.61557712  0.09907641    -0.18500
C589        C  0.44928432  0.60077799  0.07770607    -0.08400
C590        C  0.37955489  0.61831826  0.12875259    -0.18700
C591        C  0.38936740  0.63196506  0.15567336    -0.23500
C592        C  0.36845490  0.64587360  0.17950097     0.26900
C593        C  0.37985318  0.66831574  0.19999873    -0.20300
C594        C  0.36030846  0.68367362  0.22083263    -0.09900
C595        C  0.32912191  0.67670214  0.22148312    -0.10500
C596        C  0.31805416  0.65295620  0.20281844    -0.03400
C597        C  0.33751484  0.63752564  0.18208499    -0.18500
H598        H  0.40211449  0.54321604  0.05611595     0.10600
H599        H  0.36781459  0.56965120  0.09268526     0.10600
H600        H  0.43779419  0.63582067  0.11077025     0.10300
H601        H  0.47209892  0.60953653  0.07410808     0.11400
H602        H  0.35531634  0.61632427  0.12397692     0.11500
H603        H  0.41371972  0.63371694  0.16015192     0.13400
H604        H  0.40367745  0.67479919  0.19896521     0.09900
H605        H  0.36917524  0.70197641  0.23522667     0.12000
H606        H  0.29424785  0.64658205  0.20403782     0.08600
H607        H  0.32808905  0.61929940  0.16808520     0.11400
C608        C  0.56244079  0.55236849  0.41357883    -0.03200
C609        C  0.55243135  0.56254049  0.38377262    -0.05800
C610        C  0.57297838  0.57599466  0.36272028    -0.20900
C611        C  0.60389276  0.57928977  0.37110886     0.24800
C612        C  0.61426012  0.56699966  0.39971810    -0.18500
C613        C  0.59370171  0.55388279  0.42091411    -0.08400
C614        C  0.62554664  0.59676214  0.35149587    -0.18700
C615        C  0.61690704  0.62166134  0.33616366    -0.23500
C616        C  0.63816130  0.64198398  0.31916569     0.26900
C617        C  0.62572374  0.66286063  0.29806810    -0.20300
C618        C  0.64458024  0.68262190  0.28159715    -0.09900
C619        C  0.67628420  0.68183239  0.28589312    -0.10500
C620        C  0.68883204  0.66185892  0.30776668    -0.03400
C621        C  0.66996968  0.64201671  0.32430072    -0.18500
H622        H  0.52852702  0.56135343  0.37732775     0.10600
H623        H  0.56454026  0.58434781  0.34024761     0.10600
H624        H  0.63806383  0.56892246  0.40642432     0.10300
H625        H  0.60213913  0.54581676  0.44352373     0.11400
H626        H  0.64933174  0.59019292  0.35202239     0.11500
H627        H  0.59297994  0.62797896  0.33654866     0.13400
H628        H  0.60131224  0.66370255  0.29407876     0.09900
H629        H  0.63447709  0.69833215  0.26519654     0.12000
H630        H  0.71328627  0.66117119  0.31151130     0.08600
H631        H  0.68048533  0.62712847  0.34116702     0.11400
C632        C  0.67531504  0.68394280  0.21345197    -0.03200
C633        C  0.65813223  0.69656202  0.18888816    -0.05800
C634        C  0.64061474  0.67828659  0.16878411    -0.20900
C635        C  0.63996908  0.64713454  0.17294049     0.24800
C636        C  0.65744853  0.63451668  0.19746851    -0.18500
C637        C  0.67507228  0.65278095  0.21740929    -0.08400
C638        C  0.62260717  0.62842126  0.14989439    -0.18700
C639        C  0.61247419  0.60060234  0.15615696    -0.23500
C640        C  0.59595125  0.58254284  0.13192542     0.26900
C641        C  0.57221580  0.56344597  0.14142623    -0.20300
C642        C  0.55486097  0.54800787  0.11859951    -0.09900
C643        C  0.56146015  0.55098496  0.08595083    -0.10500
C644        C  0.58646908  0.56861554  0.07665726    -0.03400
C645        C  0.60350341  0.58431051  0.09939765    -0.18500
H646        H  0.65826584  0.72054140  0.18530229     0.10600
H647        H  0.62762296  0.68848980  0.14981699     0.10600
H648        H  0.65843737  0.61055321  0.20068429     0.10300
H649        H  0.68904050  0.64250373  0.23554074     0.11400
H650        H  0.61726415  0.63835771  0.12700955     0.11500
H651        H  0.61472826  0.59146085  0.17994176     0.13400
H652        H  0.56635771  0.56138705  0.16643584     0.09900
H653        H  0.53584058  0.53436304  0.12641895     0.12000
H654        H  0.59221005  0.57119818  0.05168426     0.08600
H655        H  0.62239910  0.59804010  0.09146104     0.11400
C656        C  0.55880132  0.45217651  0.42622441    -0.03200
C657        C  0.58402011  0.43747789  0.43947734    -0.05800
C658        C  0.60323527  0.42010525  0.42026884    -0.20900
C659        C  0.59764253  0.41689371  0.38745992     0.24800
C660        C  0.57302374  0.43245779  0.37396540    -0.18500
C661        C  0.55376534  0.44982284  0.39319346    -0.08400
C662        C  0.61837801  0.39762200  0.36822340    -0.18700
C663        C  0.61071251  0.38528808  0.33987172    -0.23500
C664        C  0.63151470  0.36550823  0.32127727     0.26900
C665        C  0.61897840  0.34524116  0.29904068    -0.20300
C666        C  0.63784453  0.32617053  0.28125619    -0.09900
C667        C  0.66963087  0.32732468  0.28515305    -0.10500
C668        C  0.68224582  0.34770985  0.30706887    -0.03400
C669        C  0.66345500  0.36681163  0.32477945    -0.18500
H670        H  0.58853723  0.43879668  0.46484792     0.10600
H671        H  0.62222684  0.40864643  0.43121825     0.10600
H672        H  0.56856630  0.43148174  0.34861562     0.10300
H673        H  0.53467926  0.46109086  0.38222178     0.11400
H674        H  0.64017770  0.39212718  0.37886988     0.11500
H675        H  0.58785696  0.38837005  0.33057572     0.13400
H676        H  0.59449494  0.34390566  0.29571637     0.09900
H677        H  0.62762583  0.31033007  0.26470835     0.12000
H678        H  0.70675681  0.34917191  0.31011932     0.08600
H679        H  0.67415451  0.38282185  0.34073132     0.11400
C680        C  0.55745927  0.43058225  0.06435213    -0.03200
C681        C  0.57603119  0.44727739  0.08524832    -0.05800
C682        C  0.59592302  0.43285739  0.10595619    -0.20900
C683        C  0.59729321  0.40153406  0.10654002     0.24800
C684        C  0.57958964  0.38482939  0.08472267    -0.18500
C685        C  0.55983030  0.39926836  0.06383335    -0.08400
C686        C  0.61727128  0.38722080  0.13036731    -0.18700
C687        C  0.61193860  0.35972617  0.14196396    -0.23500
C688        C  0.63133864  0.34589634  0.16659707     0.26900
C689        C  0.63350198  0.31461473  0.16732993    -0.20300
C690        C  0.65202603  0.30072877  0.18977173    -0.09900
C691        C  0.66816265  0.31789907  0.21226422    -0.10500
C692        C  0.66555012  0.34914667  0.21214199    -0.03400
C693        C  0.64716142  0.36308760  0.18956656    -0.18500
H694        H  0.57486904  0.47148746  0.08596664     0.10600
H695        H  0.60964618  0.44619761  0.12223271     0.10600
H696        H  0.58090358  0.36068148  0.08362429     0.10300
H697        H  0.54593219  0.38588114  0.04777893     0.11400
H698        H  0.63630734  0.40035064  0.13945484     0.11500
H699        H  0.59298020  0.34647736  0.13292454     0.13400
H700        H  0.62128716  0.30092684  0.15008671     0.09900
H701        H  0.65384736  0.27655455  0.18955468     0.12000
H702        H  0.67815441  0.36275085  0.22913436     0.08600
H703        H  0.64525115  0.38720723  0.19035938     0.11400
C704        C  0.43670375  0.43312313  0.44452324    -0.03200
C705        C  0.44515458  0.40323909  0.43891328    -0.05800
C706        C  0.42857762  0.38532478  0.41756089    -0.20900
C707        C  0.40311336  0.39677790  0.40153349     0.24800
C708        C  0.39396217  0.42637558  0.40807577    -0.18500
C709        C  0.41052799  0.44427655  0.42943364    -0.08400
C710        C  0.38818591  0.37798509  0.37657629    -0.18700
C711        C  0.35960168  0.38254886  0.36601872    -0.23500
C712        C  0.34534150  0.36369204  0.34082636     0.26900
C713        C  0.31377493  0.35871966  0.34195284    -0.20300
C714        C  0.29961138  0.34055513  0.31911413    -0.09900
C715        C  0.31661176  0.32751618  0.29425187    -0.10500
C716        C  0.34809637  0.33310644  0.29246865    -0.03400
C717        C  0.36238811  0.35109425  0.31557407    -0.18500
H718        H  0.46527373  0.39402257  0.45007600     0.10600
H719        H  0.43613788  0.36263749  0.41294101     0.10600
H720        H  0.37494230  0.43635281  0.39573687     0.10300
H721        H  0.40358187  0.46730001  0.43302894     0.11400
H722        H  0.40105566  0.35915040  0.36712257     0.11500
H723        H  0.34537678  0.39936314  0.37741219     0.13400
H724        H  0.30013591  0.36839043  0.36097674     0.09900
H725        H  0.27530176  0.33657140  0.32100954     0.12000
H726        H  0.36169381  0.32302223  0.27367473     0.08600
H727        H  0.38667479  0.35518832  0.31358017     0.11400
C728        C  0.43809079  0.44601603  0.08050557    -0.03200
C729        C  0.42050347  0.42461223  0.06399874    -0.05800
C730        C  0.40006748  0.40624525  0.08056527    -0.20900
C731        C  0.39680475  0.40903080  0.11381173     0.24800
C732        C  0.41431820  0.43066491  0.13016019    -0.18500
C733        C  0.43450395  0.44903541  0.11366281    -0.08400
C734        C  0.37697150  0.38756717  0.13108609    -0.18700
C735        C  0.36626413  0.39283986  0.16075746    -0.23500
C736        C  0.34993313  0.37020768  0.18008055     0.26900
C737        C  0.33259818  0.37993566  0.20637757    -0.20300
C738        C  0.31792408  0.35929904  0.22602997    -0.09900
C739        C  0.32081679  0.32851574  0.22002632    -0.10500
C740        C  0.33820096  0.31870036  0.19388930    -0.03400
C741        C  0.35279256  0.33928796  0.17416495    -0.18500
H742        H  0.42288693  0.42173644  0.03843209     0.10600
H743        H  0.38709256  0.38953555  0.06746007     0.10600
H744        H  0.41350956  0.43286916  0.15584455     0.10300
H745        H  0.44799380  0.46507428  0.12713608     0.11400
H746        H  0.37126153  0.36678968  0.11888702     0.11500
H747        H  0.36937563  0.41476224  0.17160207     0.13400
H748        H  0.33020414  0.40360383  0.21157746     0.09900
H749        H  0.30387162  0.36740540  0.24551675     0.12000
H750        H  0.34066423  0.29500777  0.18885556     0.08600
H751        H  0.36673463  0.33077564  0.15484256     0.11400
O752        O  0.53027475  0.47382601  0.54808826    -0.80200
O753        O  0.51057149  0.53812749  0.93168058    -0.80200
O754        O  0.54199855  0.47115845  0.97752517    -0.80200
O755        O  0.54985717  0.53822984  0.53168770    -0.80100
O756        O  0.51176403  0.47829224  0.93596063    -0.80300
O757        O  0.51596704  0.52960455  0.56809505    -0.80200
O758        O  0.54688591  0.54311860  0.96766226    -0.80200
O759        O  0.52006855  0.43146719  0.52249852    -0.80200
C760        C  0.53489081  0.44550726  0.54384471     1.09500
C761        C  0.53823170  0.54357405  0.93892839     1.09400
C762        C  0.53739257  0.47012405  0.94763910     1.09500
C763        C  0.54236545  0.53852344  0.56068323     1.09400
O764        O  0.45778006  0.52871467  0.53849159    -0.80200
O765        O  0.45069007  0.47983205  0.96653161    -0.80200
O766        O  0.46713567  0.46115796  0.53377328    -0.80200
O767        O  0.48906393  0.57415434  0.97217823    -0.80200
O768        O  0.45276750  0.54056921  0.96500495    -0.80200
O769        O  0.47703863  0.48492644  0.57890662    -0.80200
O770        O  0.48933454  0.56732226  0.53466036    -0.80100
O771        O  0.48349543  0.44444779  0.97308380    -0.80200
Co772      Co  0.49228466  0.50107426  0.54060163     1.51500
Co773      Co  0.48156479  0.50915934  0.95247799     1.51700
Co774      Co  0.50636647  0.46830783  0.00596394     1.51600
Co775      Co  0.51939224  0.55291766  0.50079647     1.51500
O776        O  0.50051481  0.51166061  0.49553668    -1.42100
C777        C  0.46368344  0.55616034  0.54332495     1.09400
C778        C  0.45775147  0.45275361  0.96307432     1.09500
C779        C  0.46205916  0.46512620  0.56395163     1.09500
C780        C  0.46166177  0.56746635  0.96491270     1.09400
C781        C  0.56796797  0.93598363  0.57373659     0.42400
N782        N  0.55594247  0.97120562  0.54154006     0.01300
C783        C  0.42169151  0.05339686  0.53824981    -0.06600
H784        H  0.40366402  0.94309427  0.52179005     0.06800
C785        C  0.47253560  0.94789983  0.91663009    -0.06900
Co786      Co  0.49738968  0.00131064  0.56018090     0.74200
N787        N  0.44485212  0.96788001  0.53182964    -0.26100
Co788      Co  0.44650606  0.00064537  0.49692984     0.74100
C789        C  0.44441182  0.93207902  0.92500692     0.42500
N790        N  0.54271793  0.97311132  0.94547845     0.00900
N791        N  0.45171893  0.96810856  0.95833711     0.01000
N792        N  0.45487146  0.05302812  0.57956719    -0.46900
H793        H  0.52392120  0.94310634  0.60317795     0.06800
N794        N  0.46437785  0.96756099  0.55577950     0.01300
N795        N  0.44827323  0.03318670  0.96048965     0.01100
C796        C  0.43579290  0.06840256  0.92864599     0.42700
N797        N  0.56205593  0.97395557  0.96958436    -0.25500
C798        C  0.53300068  0.05705329  0.58504521    -0.06500
N799        N  0.57746762  0.95138797  0.54794419    -0.46700
N800        N  0.42626554  0.05239379  0.95394444    -0.46900
C801        C  0.56135755  0.07239183  0.57672693     0.42400
N802        N  0.46224660  0.03283360  0.55752758     0.01300
N803        N  0.55879342  0.03882458  0.97157205    -0.25600
N804        N  0.53284722  0.97006016  0.56178971    -0.26100
N805        N  0.53938879  0.03844165  0.94749948     0.00900
H806        H  0.59803869  0.06638062  0.98245019     0.06800
H807        H  0.48019610  0.06271100  0.89956755     0.06900
N808        N  0.44308784  0.03252406  0.53325709    -0.26100
N809        N  0.47506488  0.96982692  0.93850390    -0.25700
N810        N  0.55347399  0.03649393  0.54329973     0.01300
C811        C  0.43177880  0.93314338  0.56683327     0.42700
C812        C  0.58340951  0.95292638  0.96495837    -0.07000
N813        N  0.47154271  0.03502969  0.94057317    -0.25700
H814        H  0.48790105  0.94432169  0.89675935     0.06900
N815        N  0.45723421  0.94723610  0.57743820    -0.46900
H816        H  0.60247796  0.94860726  0.98058149     0.06800
C817        C  0.56948419  0.07516958  0.93727016     0.42500
C818        C  0.53830822  0.94840806  0.58301036    -0.06500
Co819      Co  0.55829625  0.00445282  0.50691578     0.73800
N820        N  0.54961363  0.95212634  0.92416209    -0.46700
C821        C  0.42956803  0.06703948  0.56898947     0.42800
N822        N  0.57294043  0.05825336  0.55075253    -0.46700
Co823      Co  0.50727822  0.00415306  0.94240979     0.73900
C824        C  0.46589914  0.05691963  0.91965598    -0.07000
C825        C  0.42348304  0.94689949  0.53664376    -0.06500
N826        N  0.53014123  0.03515666  0.56323430    -0.26100
N827        N  0.43267834  0.94600591  0.95098695    -0.46800
H828        H  0.40237074  0.05740204  0.52288124     0.06800
C829        C  0.57876611  0.06130419  0.96723510    -0.07000
Cl830      Cl  0.50234677  0.00250205  0.50199599    -0.50000
C831        C  0.57500571  0.93843061  0.93487939     0.42600
H832        H  0.51781126  0.06074433  0.60504452     0.06800
N833        N  0.54503535  0.05968107  0.92645526    -0.46700
C834        C  0.93565739  0.43660371  0.57369196     0.42400
N835        N  0.97141976  0.44896611  0.54121067     0.01300
C836        C  0.05332227  0.58117449  0.53396632    -0.06600
H837        H  0.93796864  0.59648928  0.52520836     0.06800
C838        C  0.94315297  0.52998312  0.92024718    -0.06900
Co839      Co  0.00163678  0.50668764  0.55929564     0.74200
N840        N  0.96495403  0.55712578  0.53316088    -0.26100
Co841      Co  0.99697549  0.55703264  0.49641600     0.74100
C842        C  0.92714321  0.55743322  0.92927054     0.42500
N843        N  0.97023617  0.46085163  0.94682506     0.00900
N844        N  0.96341393  0.54946249  0.96269511     0.01000
N845        N  0.05523545  0.54859191  0.57498296    -0.46900
H846        H  0.94247021  0.47973173  0.60358605     0.06800
N847        N  0.96672163  0.53823454  0.55712695     0.01300
N848        N  0.03007789  0.55436154  0.96243253     0.01100
C849        C  0.06638370  0.56693663  0.93069562     0.42700
N850        N  0.97208468  0.44139376  0.97023657    -0.25500
C851        C  0.05885941  0.47061575  0.58241087    -0.06500
N852        N  0.95143905  0.42754270  0.54766361    -0.46700
N853        N  0.05039075  0.57570684  0.95672401    -0.46900
C854        C  0.07431250  0.44316086  0.57199956     0.42400
N855        N  0.03297138  0.54170764  0.55485169    -0.02000
N856        N  0.03816605  0.44660996  0.96971443    -0.25600
N857        N  0.97018439  0.47146869  0.56179603    -0.26100
N858        N  0.03660832  0.46606245  0.94629728     0.00900
H859        H  0.06876819  0.41025583  0.97967166     0.06800
H860        H  0.05986148  0.52401074  0.90033968     0.06900
N861        N  0.03115143  0.56062279  0.53087440    -0.26100
N862        N  0.96522995  0.52706991  0.94206277    -0.25700
N863        N  0.03786935  0.45289863  0.53956525     0.01300
C864        C  0.93137382  0.56889370  0.57097020     0.42700
C865        C  0.95097823  0.42001411  0.96567831    -0.07000
N866        N  0.03155298  0.53212856  0.94160561    -0.25700
H867        H  0.94009525  0.51566798  0.89955886     0.06900
N868        N  0.94732229  0.54473388  0.58041623    -0.46900
H869        H  0.94752194  0.40076540  0.98072435     0.06800
C870        C  0.07580602  0.43947239  0.93510126     0.42500
C871        C  0.94807844  0.46580983  0.58318853    -0.06500
Co872      Co  0.00422546  0.44799496  0.50498157     0.73800
N873        N  0.94862262  0.45395144  0.92598153    -0.46700
C874        C  0.06922313  0.57309955  0.56316792     0.42800
N875        N  0.05986348  0.43348735  0.54543228    -0.46700
Co876      Co  0.00088623  0.49640536  0.94361107     0.73900
C877        C  0.05382634  0.53799595  0.92054688    -0.07000
C878        C  0.94305877  0.57715761  0.53956014    -0.06500
N879        N  0.03668220  0.47485981  0.56078036    -0.26100
N880        N  0.94119957  0.56842853  0.95566446    -0.46800
H881        H  0.05709429  0.59993862  0.51831277     0.06800
C882        C  0.06225596  0.42878878  0.96476974    -0.07000
Cl883      Cl  0.00065416  0.50252177  0.50083455    -0.50000
C884        C  0.93539538  0.42850451  0.93635671     0.42600
H885        H  0.06281284  0.48433624  0.60338871     0.06800
N886        N  0.05857807  0.46245645  0.92495442    -0.46700
C887        C  0.28317198  0.28347657  0.72261499     0.45400
H888        H  0.28518480  0.28328643  0.69619076    -0.03600
C889        C  0.27889991  0.28338322  0.78438676     0.45500
H890        H  0.27704555  0.28334837  0.81084504    -0.03600
C891        C  0.30295768  0.30759452  0.73904087    -0.17300
C892        C  0.25065553  0.29011189  0.73473316    -0.17000
C893        C  0.29335419  0.25401470  0.73785384    -0.17400
C894        C  0.30051569  0.30759465  0.77173999    -0.17400
C895        C  0.24859245  0.28969346  0.76755057    -0.17000
C896        C  0.29142889  0.25403749  0.77054137    -0.17300
C897        C  0.71300565  0.28412917  0.72166705     0.45400
H898        H  0.71149737  0.28165595  0.69530162    -0.03600
C899        C  0.71626665  0.29024190  0.78324717     0.45500
H900        H  0.71768583  0.29292858  0.80959044    -0.03600
C901        C  0.68903795  0.30550575  0.73566040    -0.17300
C902        C  0.70781233  0.25479062  0.73966632    -0.17000
C903        C  0.74366437  0.29702903  0.73306471    -0.17400
C904        C  0.69104827  0.30926767  0.76817365    -0.17400
C905        C  0.70919615  0.25801670  0.77229248    -0.17000
C906        C  0.74544045  0.29978716  0.76568986    -0.17300
C907        C  0.28705944  0.71615258  0.72072019     0.45400
H908        H  0.28954262  0.71421003  0.69443573    -0.03600
C909        C  0.28211871  0.72126700  0.78220636     0.45500
H910        H  0.27977340  0.72354700  0.80851790    -0.03600
C911        C  0.30862471  0.69544116  0.73909515    -0.17300
C912        C  0.29485530  0.74763157  0.73329106    -0.17000
C913        C  0.25495601  0.70855135  0.73324576    -0.17400
C914        C  0.30630246  0.69841446  0.77161931    -0.17400
C915        C  0.29205580  0.75035808  0.76586149    -0.17000
C916        C  0.25269292  0.71036533  0.76599243    -0.17300
C917        C  0.71763324  0.72512379  0.72252103     0.45400
H918        H  0.71585031  0.72717457  0.69620793    -0.03600
C919        C  0.72132341  0.72062970  0.78414404     0.45500
H920        H  0.72275109  0.71846088  0.81048973    -0.03600
C921        C  0.69494370  0.70262175  0.73653078    -0.17300
C922        C  0.74896844  0.71394741  0.73411892    -0.17000
C923        C  0.71087055  0.75457951  0.74026982    -0.17400
C924        C  0.69671272  0.70045713  0.76909620    -0.17400
C925        C  0.75087150  0.71181707  0.76684058    -0.17000
C926        C  0.71326615  0.75229458  0.77292177    -0.17300
C927        C  0.23048256  0.69628863  0.71204256    -0.03200
C928        C  0.19948732  0.70125760  0.71899027    -0.05800
C929        C  0.17667136  0.68752929  0.70067513    -0.20900
C930        C  0.18428635  0.66917813  0.67454008     0.24800
C931        C  0.21524002  0.66513512  0.66681702    -0.18500
C932        C  0.23800047  0.67866121  0.68525800    -0.08400
C933        C  0.15962947  0.65290889  0.65734063    -0.18700
C934        C  0.16247517  0.64259822  0.62719973    -0.23500
C935        C  0.13840274  0.62457456  0.61119637     0.26900
C936        C  0.13538490  0.62600075  0.57792867    -0.20300
C937        C  0.11289229  0.60921875  0.56221664    -0.09900
C938        C  0.09357047  0.59013415  0.57946655    -0.10500
C939        C  0.09721843  0.58792214  0.61259642    -0.03400
C940        C  0.11930729  0.60510431  0.62837776    -0.18500
H941        H  0.19286717  0.71538884  0.73891587     0.10600
H942        H  0.15298612  0.69103765  0.70711634     0.10600
H943        H  0.22212136  0.65060015  0.64735638     0.10300
H944        H  0.26147067  0.67432395  0.67895694     0.11400
H945        H  0.13818857  0.64969433  0.66991192     0.11500
H946        H  0.18254227  0.64831748  0.61329102     0.13400
H947        H  0.15017447  0.64045723  0.56414601     0.09900
H948        H  0.11076015  0.61101374  0.53657184     0.12000
H949        H  0.08266286  0.57325064  0.62637896     0.08600
H950        H  0.12170019  0.60272687  0.65392083     0.11400
C951        C  0.08953428  0.58557029  0.91425676    -0.03200
C952        C  0.10092062  0.57714236  0.88417164    -0.05800
C953        C  0.12146947  0.59560631  0.86790076    -0.20900
C954        C  0.13149685  0.62285301  0.88157633     0.24800
C955        C  0.12027569  0.63104059  0.91182928    -0.18500
C956        C  0.09959429  0.61262376  0.92801279    -0.08400
C957        C  0.15239896  0.64393330  0.86462972    -0.18700
C958        C  0.17045388  0.63572910  0.83994882    -0.23500
C959        C  0.19103629  0.65619109  0.82173985     0.26900
C960        C  0.20843490  0.64367583  0.79682925    -0.20300
C961        C  0.22798670  0.66139032  0.77861808    -0.09900
C962        C  0.23051889  0.69223659  0.78461841    -0.10500
C963        C  0.21369022  0.70494624  0.80973790    -0.03400
C964        C  0.19388526  0.68719728  0.82801046    -0.18500
H965        H  0.09344426  0.55659746  0.87273964     0.10600
H966        H  0.12859192  0.58868166  0.84428903     0.10600
H967        H  0.12739678  0.65189688  0.92293371     0.10300
H968        H  0.09123875  0.61972983  0.95119264     0.11400
H969        H  0.15300408  0.66677933  0.87342348     0.11500
H970        H  0.17067480  0.61242929  0.83256368     0.13400
H971        H  0.20701832  0.61995603  0.79144757     0.09900
H972        H  0.24148538  0.65090384  0.75997360     0.12000
H973        H  0.21580198  0.72861552  0.81509264     0.08600
H974        H  0.18113040  0.69802378  0.84687516     0.11400
C975        C  0.22430924  0.30475107  0.78601719    -0.03200
C976        C  0.20919302  0.28960811  0.81051266    -0.05800
C977        C  0.18858130  0.30485952  0.83019731    -0.20900
C978        C  0.18330192  0.33556512  0.82603174     0.24800
C979        C  0.19802755  0.35046546  0.80085282    -0.18500
C980        C  0.21868715  0.33527258  0.78139598    -0.08400
C981        C  0.16258195  0.35125791  0.84852703    -0.18700
C982        C  0.16333585  0.38103875  0.85355150    -0.23500
C983        C  0.14227410  0.39624225  0.87584222     0.26900
C984        C  0.13173026  0.42488539  0.86833441    -0.20300
C985        C  0.11057068  0.43922980  0.88805840    -0.09900
C986        C  0.10005682  0.42533546  0.91592314    -0.10500
C987        C  0.11177925  0.39727674  0.92426160    -0.03400
C988        C  0.13267890  0.38278856  0.90433534    -0.18500
H989        H  0.21373480  0.26615325  0.81467206     0.10600
H990        H  0.17735830  0.29284954  0.84927266     0.10600
H991        H  0.19389946  0.37381321  0.79601916     0.10300
H992        H  0.23079069  0.34750978  0.76308532     0.11400
H993        H  0.14654297  0.33763803  0.86190536     0.11500
H994        H  0.17900621  0.39511992  0.84036034     0.13400
H995        H  0.13919355  0.43578067  0.84667592     0.09900
H996        H  0.10207658  0.46098768  0.88123815     0.12000
H997        H  0.10434345  0.38614170  0.94573721     0.08600
H998        H  0.14128892  0.36112023  0.91125627     0.11400
C999        C  0.09776204  0.42548965  0.58883113    -0.03200
C1000       C  0.11478640  0.40401846  0.57188877    -0.05800
C1001       C  0.13615287  0.38622029  0.58752653    -0.20900
C1002       C  0.14038912  0.38886162  0.62058850     0.24800
C1003       C  0.12343914  0.41042022  0.63765807    -0.18500
C1004       C  0.10248711  0.42875797  0.62183841    -0.08400
C1005       C  0.16356132  0.36965823  0.63616354    -0.18700
C1006       C  0.16037031  0.35882774  0.66588605    -0.23500
C1007       C  0.18359215  0.33922884  0.68095888     0.26900
C1008       C  0.17429654  0.31776227  0.70326028    -0.20300
C1009       C  0.19584790  0.30020331  0.71910656    -0.09900
C1010       C  0.22728344  0.30453471  0.71388034    -0.10500
C1011       C  0.23648394  0.32550248  0.69091529    -0.03400
C1012       C  0.21493900  0.34259536  0.67461600    -0.18500
H1013       H  0.11164707  0.40105596  0.54642695     0.10600
H1014       H  0.14911334  0.36998534  0.57381346     0.10600
H1015       H  0.12669440  0.41342713  0.66308083     0.10300
H1016       H  0.08959864  0.44504263  0.63552073     0.11400
H1017       H  0.18297586  0.36267274  0.62181760     0.11500
H1018       H  0.13946971  0.36327766  0.67904861     0.13400
H1019       H  0.15029334  0.31472714  0.70860189     0.09900
H1020       H  0.18799626  0.28402893  0.73639010     0.12000
H1021       H  0.26042949  0.32988670  0.68660258     0.08600
H1022       H  0.22299341  0.35937638  0.65812139     0.11400
C1023       C  0.91347156  0.41766742  0.59109548    -0.03200
C1024       C  0.91253296  0.38665888  0.58534354    -0.05800
C1025       C  0.89276343  0.36828497  0.60268371    -0.20900
C1026       C  0.87291434  0.38053242  0.62557373     0.24800
C1027       C  0.87346979  0.41168006  0.63104318    -0.18500
C1028       C  0.89370511  0.43003351  0.61407548    -0.08400
C1029       C  0.85299079  0.36004228  0.64422163    -0.18700
C1030       C  0.82531939  0.36799720  0.65536926    -0.23500
C1031       C  0.80503806  0.34742516  0.67350082     0.26900
C1032       C  0.77335518  0.35152486  0.67179600    -0.20300
C1033       C  0.75352646  0.33390545  0.68988350    -0.09900
C1034       C  0.76497468  0.31226419  0.71073149    -0.10500
C1035       C  0.79664090  0.30771881  0.71221192    -0.03400
C1036       C  0.81653806  0.32506129  0.69366263    -0.18500
H1037       H  0.92759130  0.37646517  0.56788379     0.10600
H1038       H  0.89291725  0.34438241  0.59814284     0.10600
H1039       H  0.85891791  0.42180023  0.64899152     0.10300
H1040       H  0.89391587  0.45385837  0.61899128     0.11400
H1041       H  0.86067516  0.33716129  0.64722410     0.11500
H1042       H  0.81638914  0.38993469  0.64958549     0.13400
H1043       H  0.76391252  0.36868431  0.65665269     0.09900
H1044       H  0.72925080  0.33815407  0.68863387     0.12000
H1045       H  0.80596046  0.29132932  0.72835820     0.08600
H1046       H  0.84086755  0.32171943  0.69609476     0.11400
C1047       C  0.76948310  0.31661445  0.78284671    -0.03200
C1048       C  0.77521610  0.34674108  0.77577736    -0.05800
C1049       C  0.79695156  0.36294541  0.79309663    -0.20900
C1050       C  0.81277632  0.34955902  0.81826304     0.24800
C1051       C  0.80696941  0.31928821  0.82527592    -0.18500
C1052       C  0.78527684  0.30306896  0.80782188    -0.08400
C1053       C  0.83551838  0.36772488  0.83611956    -0.18700
C1054       C  0.84359898  0.36206888  0.86643805    -0.23500
C1055       C  0.86666781  0.37993528  0.88422605     0.26900
C1056       C  0.88173438  0.36661256  0.90993914    -0.20300
C1057       C  0.90391822  0.38241117  0.92712881    -0.09900
C1058       C  0.91136203  0.41194596  0.91897756    -0.10500
C1059       C  0.89592591  0.42554111  0.89366177    -0.03400
C1060       C  0.87363943  0.40980152  0.87655857    -0.18500
H1061       H  0.76254931  0.35784811  0.75718198     0.10600
H1062       H  0.80102243  0.38618308  0.78721220     0.10600
H1063       H  0.81933677  0.30789555  0.84383905     0.10300
H1064       H  0.78088159  0.27988354  0.81368526     0.11400
H1065       H  0.84548566  0.38661526  0.82375167     0.11500
H1066       H  0.83350994  0.34319564  0.87874602     0.13400
H1067       H  0.87661937  0.34373108  0.91647439     0.09900
H1068       H  0.91547274  0.37130538  0.94647694     0.12000
H1069       H  0.90096834  0.44844384  0.88717325     0.08600
H1070       H  0.86176730  0.42130480  0.85772202     0.11400
C1071       C  0.77534733  0.69626668  0.78463522    -0.03200
C1072       C  0.79091621  0.71126091  0.80920871    -0.05800
C1073       C  0.81197002  0.69602877  0.82815604    -0.20900
C1074       C  0.81737940  0.66529705  0.82347311     0.24800
C1075       C  0.80196894  0.65039876  0.79839194    -0.18500
C1076       C  0.78106505  0.66574315  0.77931724    -0.08400
C1077       C  0.83935726  0.64995573  0.84510113    -0.18700
C1078       C  0.84027777  0.62003780  0.84935261    -0.23500
C1079       C  0.86223497  0.60469413  0.87093107     0.26900
C1080       C  0.86860480  0.57432706  0.86529541    -0.20300
C1081       C  0.88926378  0.55893583  0.88451117    -0.09900
C1082       C  0.90387204  0.57343240  0.91018553    -0.10500
C1083       C  0.89681992  0.60355766  0.91659229    -0.03400
C1084       C  0.87627245  0.61907743  0.89716865    -0.18500
H1085       H  0.78652659  0.73472973  0.81391265     0.10600
H1086       H  0.82359346  0.70818327  0.84705202     0.10600
H1087       H  0.80593076  0.62700555  0.79321631     0.10300
H1088       H  0.76887621  0.65365161  0.76076777     0.11400
H1089       H  0.85503326  0.66416411  0.85837554     0.11500
H1090       H  0.82470161  0.60573901  0.83609575     0.13400
H1091       H  0.85786802  0.56252263  0.84559084     0.09900
H1092       H  0.89382145  0.53565081  0.87910381     0.12000
H1093       H  0.90752294  0.61527267  0.93636007     0.08600
H1094       H  0.87127150  0.64215009  0.90306355     0.11400
C1095       C  0.77136522  0.70075214  0.71128056    -0.03200
C1096       C  0.76060671  0.68459823  0.68463471    -0.05800
C1097       C  0.78088246  0.67093017  0.66348706    -0.20900
C1098       C  0.81235782  0.67234654  0.66888785     0.24800
C1099       C  0.82340980  0.68884733  0.69519266    -0.18500
C1100       C  0.80304331  0.70322861  0.71603987    -0.08400
C1101       C  0.83281311  0.65644402  0.64638131    -0.18700
C1102       C  0.85821278  0.64222413  0.65575517    -0.23500
C1103       C  0.87665515  0.62359953  0.63351816     0.26900
C1104       C  0.89240400  0.59878909  0.64535647    -0.20300
C1105       C  0.90960520  0.58056661  0.62488982    -0.09900
C1106       C  0.91177606  0.58713853  0.59223953    -0.10500
C1107       C  0.89622201  0.61211561  0.58044206    -0.03400
C1108       C  0.87888233  0.63020085  0.60084344    -0.18500
H1109       H  0.73640263  0.68175197  0.68043553     0.10600
H1110       H  0.77188860  0.65841424  0.64331996     0.10600
H1111       H  0.84770152  0.69090346  0.69942351     0.10300
H1112       H  0.81203039  0.71611031  0.73591187     0.11400
H1113       H  0.82494967  0.65381004  0.62196038     0.11500
H1114       H  0.86422699  0.64220429  0.68089408     0.13400
H1115       H  0.89114924  0.59333092  0.67045926     0.09900
H1116       H  0.92153347  0.56158150  0.63471143     0.12000
H1117       H  0.89753710  0.61786934  0.55545655     0.08600
H1118       H  0.86770485  0.64960373  0.59103832     0.11400
C1119       C  0.69850765  0.23500046  0.79512342    -0.03200
C1120       C  0.70976551  0.20563299  0.79404664    -0.05800
C1121       C  0.69776294  0.18378596  0.81438004    -0.20900
C1122       C  0.67385416  0.19079786  0.83551092     0.24800
C1123       C  0.66319155  0.22041700  0.83706613    -0.18500
C1124       C  0.67553537  0.24230330  0.81720027    -0.08400
C1125       C  0.66034794  0.16702314  0.85576771    -0.18700
C1126       C  0.63026271  0.16608029  0.86243372    -0.23500
C1127       C  0.61566308  0.14225230  0.88173529     0.26900
C1128       C  0.58538368  0.13408313  0.87503950    -0.20300
C1129       C  0.57051870  0.11228774  0.89311616    -0.09900
C1130       C  0.58538936  0.09865707  0.91880618    -0.10500
C1131       C  0.61557492  0.10712916  0.92590692    -0.03400
C1132       C  0.63066855  0.12860883  0.90741431    -0.18500
H1133       H  0.72759598  0.19959686  0.77728487     0.10600
H1134       H  0.70655101  0.16118584  0.81299263     0.10600
H1135       H  0.64532633  0.22670617  0.85366715     0.10300
H1136       H  0.66643639  0.26479275  0.81840396     0.11400
H1137       H  0.67502518  0.14895281  0.86350237     0.11500
H1138       H  0.61529428  0.18250736  0.85171922     0.13400
H1139       H  0.57326529  0.14443246  0.85554100     0.09900
H1140       H  0.54725168  0.10623988  0.88710916     0.12000
H1141       H  0.62766171  0.09697193  0.94550383     0.08600
H1142       H  0.65379902  0.13491989  0.91361334     0.11400
C1143       C  0.69509208  0.22841627  0.72253374    -0.03200
C1144       C  0.71103711  0.21591506  0.69668199    -0.05800
C1145       C  0.69755780  0.19355646  0.67777971    -0.20900
C1146       C  0.66759413  0.18387796  0.68386484     0.24800
C1147       C  0.65193188  0.19592856  0.71036276    -0.18500
C1148       C  0.66550953  0.21812241  0.72935637    -0.08400
C1149       C  0.65339782  0.16137354  0.66206343    -0.18700
C1150       C  0.62307082  0.15995992  0.65674890    -0.23500
C1151       C  0.60803359  0.13791911  0.63496869     0.26900
C1152       C  0.57662296  0.13270513  0.63871044    -0.20300
C1153       C  0.56140569  0.11182039  0.61944436    -0.09900
C1154       C  0.57719491  0.09585510  0.59564801    -0.10500
C1155       C  0.60838723  0.10175871  0.59099719    -0.03400
C1156       C  0.62372557  0.12253348  0.61048326    -0.18500
H1157       H  0.73371905  0.22387970  0.69080145     0.10600
H1158       H  0.71020076  0.18448232  0.65769725     0.10600
H1159       H  0.62917308  0.18843059  0.71643816     0.10300
H1160       H  0.65249095  0.22796454  0.74874145     0.11400
H1161       H  0.66866141  0.14632186  0.64942103     0.11500
H1162       H  0.60817792  0.17550597  0.66925940     0.13400
H1163       H  0.56383974  0.14451726  0.65701659     0.09900
H1164       H  0.53726593  0.10813244  0.62333136     0.12000
H1165       H  0.62106978  0.08992930  0.57264629     0.08600
H1166       H  0.64768404  0.12654032  0.60601014     0.11400
C1167       C  0.31181111  0.23231649  0.71939706    -0.03200
C1168       C  0.34352587  0.23129504  0.72358078    -0.05800
C1169       C  0.36112757  0.21092342  0.70610589    -0.20900
C1170       C  0.34742539  0.19134658  0.68392137     0.24800
C1171       C  0.31547324  0.19255832  0.67981321    -0.18500
C1172       C  0.29792312  0.21312221  0.69721355    -0.08400
C1173       C  0.36719290  0.16953637  0.66650901    -0.18700
C1174       C  0.35854010  0.15468481  0.63985921    -0.23500
C1175       C  0.37789242  0.13256139  0.62237826     0.26900
C1176       C  0.40427951  0.11959832  0.63553717    -0.20300
C1177       C  0.42117958  0.09850526  0.61807173    -0.09900
C1178       C  0.41200991  0.08972463  0.58727652    -0.10500
C1179       C  0.38558923  0.10245684  0.57430790    -0.03400
C1180       C  0.36876600  0.12354485  0.59166825    -0.18500
H1181       H  0.35462028  0.24631991  0.74038760     0.10600
H1182       H  0.38557645  0.21050019  0.70989473     0.10600
H1183       H  0.30370338  0.17743128  0.66376116     0.10300
H1184       H  0.27343534  0.21374548  0.69375857     0.11400
H1185       H  0.39008652  0.16653823  0.67566982     0.11500
H1186       H  0.33649958  0.15948709  0.62941880     0.13400
H1187       H  0.41181220  0.12511317  0.65940295     0.09900
H1188       H  0.44129729  0.08885650  0.62881449     0.12000
H1189       H  0.37776575  0.09618607  0.55071714     0.08600
H1190       H  0.34846052  0.13288842  0.58097349     0.11400
C1191       C  0.41614568  0.08905037  0.91052380    -0.03200
C1192       C  0.38428416  0.08808578  0.91434745    -0.05800
C1193       C  0.36541185  0.10638265  0.89606816    -0.20900
C1194       C  0.37798501  0.12656679  0.87418481     0.24800
C1195       C  0.40994376  0.12778449  0.87061295    -0.18500
C1196       C  0.42880397  0.10909523  0.88852474    -0.08400
C1197       C  0.35717535  0.14540381  0.85487793    -0.18700
C1198       C  0.36496208  0.17293997  0.84491563    -0.23500
C1199       C  0.34409283  0.19274972  0.82692245     0.26900
C1200       C  0.34748151  0.22378742  0.83058954    -0.20300
C1201       C  0.32944640  0.24341684  0.81315153    -0.09900
C1202       C  0.30802901  0.23248768  0.79104113    -0.10500
C1203       C  0.30436151  0.20139919  0.78735291    -0.03400
C1204       C  0.32215776  0.18163420  0.80526943    -0.18500
H1205       H  0.37387540  0.07269959  0.93099557     0.10600
H1206       H  0.34089926  0.10488873  0.89915289     0.10600
H1207       H  0.42040571  0.14260226  0.85345913     0.10300
H1208       H  0.45327763  0.11028934  0.88510083     0.11400
H1209       H  0.33418274  0.13715805  0.85059322     0.11500
H1210       H  0.38685271  0.18229321  0.85203313     0.13400
H1211       H  0.36431485  0.23290974  0.84692387     0.09900
H1212       H  0.33306577  0.26724188  0.81618420     0.12000
H1213       H  0.28809410  0.19248460  0.77029675     0.08600
H1214       H  0.31941457  0.15779737  0.80140390     0.11400
C1215       C  0.58680410  0.91382318  0.59099402    -0.03200
C1216       C  0.61531117  0.90495851  0.57880687    -0.05800
C1217       C  0.63351470  0.88464046  0.59541153    -0.20900
C1218       C  0.62384787  0.87286872  0.62472697     0.24800
C1219       C  0.59501692  0.88142175  0.63664323    -0.18500
C1220       C  0.57681622  0.90169861  0.62000596    -0.08400
C1221       C  0.64400946  0.85112372  0.64145085    -0.18700
C1222       C  0.64135436  0.84443179  0.67267404    -0.23500
C1223       C  0.66032792  0.82182256  0.68941073     0.26900
C1224       C  0.64859912  0.80908238  0.71737473    -0.20300
C1225       C  0.66516622  0.78766036  0.73403952    -0.09900
C1226       C  0.69434545  0.77898956  0.72366468    -0.10500
C1227       C  0.70624823  0.79159970  0.69571066    -0.03400
C1228       C  0.68951909  0.81297301  0.67878355    -0.18500
H1229       H  0.62361705  0.91378959  0.55642507     0.10600
H1230       H  0.65539153  0.87827141  0.58540771     0.10600
H1231       H  0.58599797  0.87224044  0.65848552     0.10300
H1232       H  0.55490258  0.90783664  0.62998464     0.11400
H1233       H  0.66163360  0.84032420  0.62728874     0.11500
H1234       H  0.62385483  0.85531019  0.68689129     0.13400
H1235       H  0.62616695  0.81529729  0.72605487     0.09900
H1236       H  0.65484675  0.77740675  0.75474338     0.12000
H1237       H  0.72850893  0.78488153  0.68700179     0.08600
H1238       H  0.69968265  0.82264771  0.65772240     0.11400
C1239       C  0.59133500  0.91435662  0.91765151    -0.03200
C1240       C  0.57588803  0.89675436  0.89494622    -0.05800
C1241       C  0.59113762  0.87394265  0.87849002    -0.20900
C1242       C  0.62229664  0.86883795  0.88372261     0.24800
C1243       C  0.63785513  0.88646904  0.90643508    -0.18500
C1244       C  0.62240022  0.90889211  0.92345040    -0.08400
C1245       C  0.63748304  0.84426249  0.86589549    -0.18700
C1246       C  0.66678292  0.84543070  0.85622277    -0.23500
C1247       C  0.68045809  0.82119560  0.83649847     0.26900
C1248       C  0.70122187  0.82836449  0.81216642    -0.20300
C1249       C  0.71261794  0.80596801  0.79186453    -0.09900
C1250       C  0.70370722  0.77600338  0.79590243    -0.10500
C1251       C  0.68413706  0.76870321  0.82123148    -0.03400
C1252       C  0.67258756  0.79104996  0.84130225    -0.18500
H1253       H  0.55190486  0.90040804  0.89018213     0.10600
H1254       H  0.57864029  0.86045148  0.86129516     0.10600
H1255       H  0.66173907  0.88260435  0.91145291     0.10300
H1256       H  0.63486148  0.92217852  0.94082168     0.11400
H1257       H  0.62330231  0.82548649  0.85840133     0.11500
H1258       H  0.68018720  0.86554729  0.86059013     0.13400
H1259       H  0.70783821  0.85141861  0.80823237     0.09900
H1260       H  0.72794389  0.81206170  0.77267354     0.12000
H1261       H  0.67682312  0.74580815  0.82483753     0.08600
H1262       H  0.65727733  0.78473831  0.86041275     0.11400
C1263       C  0.30780996  0.77378119  0.78489261    -0.03200
C1264       C  0.29151928  0.79168874  0.80647494    -0.05800
C1265       C  0.30690967  0.81233194  0.82601333    -0.20900
C1266       C  0.33890793  0.81499244  0.82480664     0.24800
C1267       C  0.35512747  0.79675734  0.80305827    -0.18500
C1268       C  0.33969505  0.77629788  0.78348646    -0.08400
C1269       C  0.35411912  0.83747404  0.84604453    -0.18700
C1270       C  0.38447687  0.83875943  0.85130693    -0.23500
C1271       C  0.39932787  0.86235263  0.87117807     0.26900
C1272       C  0.42964198  0.87033716  0.86438611    -0.20300
C1273       C  0.44436781  0.89283588  0.88195900    -0.09900
C1274       C  0.42920633  0.90755704  0.90708510    -0.10500
C1275       C  0.39916799  0.89898175  0.91458568    -0.03400
C1276       C  0.38431821  0.87663002  0.89680070    -0.18500
H1277       H  0.26693527  0.78962247  0.80823046     0.10600
H1278       H  0.29377612  0.82607548  0.84239546     0.10600
H1279       H  0.37961716  0.79816625  0.80062015     0.10300
H1280       H  0.35270781  0.76205178  0.76747864     0.11400
H1281       H  0.33949189  0.85394059  0.85748835     0.11500
H1282       H  0.39956107  0.82283804  0.83977847     0.13400
H1283       H  0.44183489  0.85945176  0.84502135     0.09900
H1284       H  0.46761727  0.89865113  0.87578904     0.12000
H1285       H  0.38701504  0.90975865  0.93403067     0.08600
H1286       H  0.36130655  0.87039980  0.90343953     0.11400
C1287       C  0.41281328  0.91280066  0.58624347    -0.03200
C1288       C  0.38102118  0.91155804  0.58198108    -0.05800
C1289       C  0.36293152  0.89321185  0.60123513    -0.20900
C1290       C  0.37627903  0.87523904  0.62462770     0.24800
C1291       C  0.40815431  0.87650201  0.62887906    -0.18500
C1292       C  0.42618516  0.89524544  0.60996553    -0.08400
C1293       C  0.35632351  0.85604058  0.64468630    -0.18700
C1294       C  0.36594771  0.83008680  0.65711644    -0.23500
C1295       C  0.34615159  0.80980567  0.67597620     0.26900
C1296       C  0.35254398  0.77912713  0.67519900    -0.20300
C1297       C  0.33525648  0.75914255  0.69312527    -0.09900
C1298       C  0.31158774  0.76939458  0.71296116    -0.10500
C1299       C  0.30511801  0.80015983  0.71399846    -0.03400
C1300       C  0.32216222  0.82024943  0.69550496    -0.18500
H1301       H  0.37000081  0.92522922  0.56422814     0.10600
H1302       H  0.33843989  0.89288984  0.59769533     0.10600
H1303       H  0.41917426  0.86359260  0.64725398     0.10300
H1304       H  0.45061397  0.89601089  0.61385521     0.11400
H1305       H  0.33259460  0.86252110  0.64754855     0.11500
H1306       H  0.38876906  0.82220745  0.65147120     0.13400
H1307       H  0.37100305  0.77053784  0.66055460     0.09900
H1308       H  0.34096136  0.73567078  0.69194735     0.12000
H1309       H  0.28702527  0.80859990  0.72920646     0.08600
H1310       H  0.31707322  0.84388807  0.69716299     0.11400
C1311       C  0.32505580  0.68245576  0.79521597    -0.03200
C1312       C  0.32989715  0.65152648  0.79276833    -0.05800
C1313       C  0.34555082  0.63656329  0.81679682    -0.20900
C1314       C  0.35645447  0.65220148  0.84369992     0.24800
C1315       C  0.35157186  0.68322776  0.84600152    -0.18500
C1316       C  0.33618516  0.69814933  0.82188928    -0.08400
C1317       C  0.37167320  0.63513925  0.86924477    -0.18700
C1318       C  0.38898689  0.64769930  0.89229234    -0.23500
C1319       C  0.40526962  0.62927927  0.91581895     0.26900
C1320       C  0.43440242  0.63817255  0.92600976    -0.20300
C1321       C  0.45225152  0.61884746  0.94409797    -0.09900
C1322       C  0.44099858  0.59047888  0.95240217    -0.10500
C1323       C  0.41069362  0.58292606  0.94485492    -0.03400
C1324       C  0.39294458  0.60218327  0.92676178    -0.18500
H1325       H  0.32074918  0.63876806  0.77289476     0.10600
H1326       H  0.34875387  0.61259873  0.81459214     0.10600
H1327       H  0.35876436  0.69608972  0.86660747     0.10300
H1328       H  0.33260989  0.72202159  0.82436644     0.11400
H1329       H  0.36965655  0.61090960  0.86805826     0.11500
H1330       H  0.39390521  0.67148819  0.89221306     0.13400
H1331       H  0.44405975  0.65926857  0.91832191     0.09900
H1332       H  0.47542755  0.62538872  0.94989162     0.12000
H1333       H  0.40116210  0.56148080  0.95155985     0.08600
H1334       H  0.36998048  0.59537688  0.92045071     0.11400
C1335       C  0.44217534  0.57400810  0.56286303    -0.03200
C1336       C  0.41274588  0.56291163  0.56912754    -0.05800
C1337       C  0.39368298  0.57745669  0.59093816    -0.20900
C1338       C  0.40375040  0.60307059  0.60741000     0.24800
C1339       C  0.43285060  0.61478855  0.60054222    -0.18500
C1340       C  0.45184812  0.60041959  0.57834351    -0.08400
C1341       C  0.38284064  0.61721665  0.63088302    -0.18700
C1342       C  0.39241972  0.63207107  0.65716964    -0.23500
C1343       C  0.37111433  0.64595734  0.68067671     0.26900
C1344       C  0.38183303  0.66914122  0.70064565    -0.20300
C1345       C  0.36184472  0.68427500  0.72123354    -0.09900
C1346       C  0.33087043  0.67641945  0.72205539    -0.10500
C1347       C  0.32047789  0.65214646  0.70377237    -0.03400
C1348       C  0.34039668  0.63684554  0.68344113    -0.18500
H1349       H  0.40464876  0.54258135  0.55765170     0.10600
H1350       H  0.37123843  0.56820023  0.59559592     0.10600
H1351       H  0.44093759  0.63502397  0.61216192     0.10300
H1352       H  0.47446495  0.60942099  0.57411473     0.11400
H1353       H  0.35863958  0.61436664  0.62644095     0.11500
H1354       H  0.41672818  0.63482815  0.66132584     0.13400
H1355       H  0.40546183  0.67626879  0.69946764     0.09900
H1356       H  0.37018453  0.70299240  0.73536257     0.12000
H1357       H  0.29684050  0.64516881  0.70508017     0.08600
H1358       H  0.33145280  0.61807431  0.66994316     0.11400
C1359       C  0.55988395  0.55310140  0.91407964    -0.03200
C1360       C  0.54914267  0.56643083  0.88607973    -0.05800
C1361       C  0.56957056  0.57956768  0.86475543    -0.20900
C1362       C  0.60109379  0.57938731  0.87104290     0.24800
C1363       C  0.61193354  0.56388816  0.89761754    -0.18500
C1364       C  0.59147891  0.55111212  0.91919582    -0.08400
C1365       C  0.62297410  0.59662424  0.85148451    -0.18700
C1366       C  0.61552105  0.62326845  0.83904583    -0.23500
C1367       C  0.63721285  0.64286047  0.82182387     0.26900
C1368       C  0.62524677  0.66477802  0.80166795    -0.20300
C1369       C  0.64462683  0.68384502  0.78495251    -0.09900
C1370       C  0.67633068  0.68146300  0.78831640    -0.10500
C1371       C  0.68847724  0.66045321  0.80931952    -0.03400
C1372       C  0.66908360  0.64115209  0.82592547    -0.18500
H1373       H  0.52489052  0.56797697  0.88141503     0.10600
H1374       H  0.56061944  0.59041419  0.84378301     0.10600
H1375       H  0.63617228  0.56305846  0.90259106     0.10300
H1376       H  0.60031451  0.54045830  0.94035541     0.11400
H1377       H  0.64608481  0.58819891  0.84945981     0.11500
H1378       H  0.59234921  0.63147264  0.84181155     0.13400
H1379       H  0.60081044  0.66691173  0.79854563     0.09900
H1380       H  0.63492077  0.70035830  0.76918935     0.12000
H1381       H  0.71295182  0.65859571  0.81233121     0.08600
H1382       H  0.67916712  0.62533871  0.84214067     0.11400
C1383       C  0.67549973  0.68341566  0.71589111    -0.03200
C1384       C  0.65818342  0.69616063  0.69149272    -0.05800
C1385       C  0.64143517  0.67792883  0.67060680    -0.20900
C1386       C  0.64168592  0.64666451  0.67376745     0.24800
C1387       C  0.65901485  0.63392599  0.69836009    -0.18500
C1388       C  0.67582018  0.65217262  0.71915896    -0.08400
C1389       C  0.62524039  0.62804073  0.64982494    -0.18700
C1390       C  0.61464723  0.60030750  0.65567566    -0.23500
C1391       C  0.59781257  0.58269981  0.63124418     0.26900
C1392       C  0.57296889  0.56492918  0.64054402    -0.20300
C1393       C  0.55545853  0.54972651  0.61768106    -0.09900
C1394       C  0.56292663  0.55151968  0.58512468    -0.10500
C1395       C  0.58884250  0.56800994  0.57601705    -0.03400
C1396       C  0.60605295  0.58356851  0.59883748    -0.18500
H1397       H  0.65779728  0.72021116  0.68849549     0.10600
H1398       H  0.62841668  0.68825741  0.65173931     0.10600
H1399       H  0.66054495  0.60991196  0.70091183     0.10300
H1400       H  0.68980411  0.64183094  0.73724064     0.11400
H1401       H  0.62055192  0.63810201  0.62684086     0.11500
H1402       H  0.61629396  0.59112782  0.67950582     0.13400
H1403       H  0.56644180  0.56368681  0.66544123     0.09900
H1404       H  0.53568566  0.53710615  0.62542006     0.12000
H1405       H  0.59524804  0.56972118  0.55112848     0.08600
H1406       H  0.62566045  0.59642905  0.59110751     0.11400
C1407       C  0.56095257  0.45688869  0.92643090    -0.03200
C1408       C  0.58899510  0.44721657  0.93885569    -0.05800
C1409       C  0.60985075  0.43184533  0.91949411    -0.20900
C1410       C  0.60303125  0.42552949  0.88742262     0.24800
C1411       C  0.57572050  0.43667491  0.87454314    -0.18500
C1412       C  0.55490407  0.45210475  0.89386725    -0.08400
C1413       C  0.62465612  0.40694566  0.86835185    -0.18700
C1414       C  0.61565234  0.38981709  0.84338161    -0.23500
C1415       C  0.63591545  0.36934374  0.82476404     0.26900
C1416       C  0.62227397  0.34932055  0.80294691    -0.20300
C1417       C  0.64000958  0.32967220  0.78466209    -0.09900
C1418       C  0.67186228  0.32978785  0.78759096    -0.10500
C1419       C  0.68566300  0.34952092  0.80947314    -0.03400
C1420       C  0.66796061  0.36926992  0.82775591    -0.18500
H1421       H  0.59452323  0.45082559  0.96377239     0.10600
H1422       H  0.63093338  0.42398030  0.92989408     0.10600
H1423       H  0.57020330  0.43343445  0.84960791     0.10300
H1424       H  0.53372656  0.45965090  0.88342497     0.11400
H1425       H  0.64796452  0.40585840  0.87679552     0.11500
H1426       H  0.59168624  0.38957066  0.83694132     0.13400
H1427       H  0.59771387  0.34876576  0.80010862     0.09900
H1428       H  0.62881564  0.31424445  0.76836624     0.12000
H1429       H  0.71026065  0.35002980  0.81200588     0.08600
H1430       H  0.67967559  0.38451551  0.84372176     0.11400
C1431       C  0.55746296  0.43004744  0.56374145    -0.03200
C1432       C  0.57732298  0.44672223  0.58330716    -0.05800
C1433       C  0.59665627  0.43233734  0.60458588    -0.20900
C1434       C  0.59617429  0.40109625  0.60711704     0.24800
C1435       C  0.57727227  0.38426973  0.58653812    -0.18500
C1436       C  0.55808959  0.39867195  0.56500169    -0.08400
C1437       C  0.61561131  0.38706621  0.63159316    -0.18700
C1438       C  0.60888007  0.36070385  0.64516047    -0.23500
C1439       C  0.62832061  0.34727371  0.66998327     0.26900
C1440       C  0.63004769  0.31602433  0.67166490    -0.20300
C1441       C  0.64940388  0.30256495  0.69360923    -0.09900
C1442       C  0.66677061  0.32015214  0.71469624    -0.10500
C1443       C  0.66429546  0.35138167  0.71396565    -0.03400
C1444       C  0.64510504  0.36490051  0.69181510    -0.18500
H1445       H  0.57752575  0.47095283  0.58263087     0.10600
H1446       H  0.61135271  0.44572437  0.61985312     0.10600
H1447       H  0.57716476  0.36007208  0.58698223     0.10300
H1448       H  0.54315826  0.38529066  0.54999730     0.11400
H1449       H  0.63559108  0.39952592  0.63945559     0.11500
H1450       H  0.58905922  0.34799508  0.63735705     0.13400
H1451       H  0.61707455  0.30203476  0.65533132     0.09900
H1452       H  0.65107777  0.27838634  0.69394400     0.12000
H1453       H  0.67774450  0.36525704  0.72997055     0.08600
H1454       H  0.64349573  0.38905534  0.69183060     0.11400
C1455       C  0.43798931  0.43239327  0.94423743    -0.03200
C1456       C  0.44735090  0.40304192  0.93722231    -0.05800
C1457       C  0.43097113  0.38537957  0.91546930    -0.20900
C1458       C  0.40484796  0.39658610  0.90039120     0.24800
C1459       C  0.39497145  0.42570311  0.90819436    -0.18500
C1460       C  0.41127641  0.44329404  0.93000691    -0.08400
C1461       C  0.38975443  0.37794067  0.87539788    -0.18700
C1462       C  0.36118227  0.38272857  0.86486458    -0.23500
C1463       C  0.34642361  0.36397130  0.83988854     0.26900
C1464       C  0.31452058  0.36135935  0.84003940    -0.20300
C1465       C  0.29970603  0.34338601  0.81748767    -0.09900
C1466       C  0.31645719  0.32826917  0.79387161    -0.10500
C1467       C  0.34829439  0.33144585  0.79297494    -0.03400
C1468       C  0.36322181  0.34918744  0.81581059    -0.18500
H1469       H  0.46794807  0.39408154  0.94766221     0.10600
H1470       H  0.43913755  0.36309050  0.90986481     0.10600
H1471       H  0.37548117  0.43562732  0.89665156     0.10300
H1472       H  0.40363809  0.46593993  0.93467666     0.11400
H1473       H  0.40246986  0.35898657  0.86603824     0.11500
H1474       H  0.34720254  0.39979649  0.87610951     0.13400
H1475       H  0.30106316  0.37275586  0.85809440     0.09900
H1476       H  0.27511118  0.34118023  0.81857361     0.12000
H1477       H  0.36159511  0.31970263  0.77505331     0.08600
H1478       H  0.38778424  0.35140330  0.81440764     0.11400
C1479       C  0.43892099  0.44720099  0.58099162    -0.03200
C1480       C  0.42189042  0.42496202  0.56511559    -0.05800
C1481       C  0.40193565  0.40652321  0.58219759    -0.20900
C1482       C  0.39853630  0.41003186  0.61535660     0.24800
C1483       C  0.41530684  0.43264630  0.63107018    -0.18500
C1484       C  0.43507426  0.45108340  0.61403484    -0.08400
C1485       C  0.37921076  0.38839936  0.63307538    -0.18700
C1486       C  0.36854083  0.39359677  0.66277327    -0.23500
C1487       C  0.35166046  0.37102968  0.68170864     0.26900
C1488       C  0.33334472  0.38086430  0.70721174    -0.20300
C1489       C  0.31775231  0.36031536  0.72619407    -0.09900
C1490       C  0.32061856  0.32951101  0.72028184    -0.10500
C1491       C  0.33899784  0.31956246  0.69497919    -0.03400
C1492       C  0.35459139  0.34007556  0.67596676    -0.18500
H1493       H  0.42446548  0.42138723  0.53967073     0.10600
H1494       H  0.38947964  0.38912598  0.56954455     0.10600
H1495       H  0.41427990  0.43559407  0.65665654     0.10300
H1496       H  0.44807989  0.46785550  0.62702336     0.11400
H1497       H  0.37351973  0.36754681  0.62097661     0.11500
H1498       H  0.37162026  0.41548984  0.67370757     0.13400
H1499       H  0.33085586  0.40455396  0.71226281     0.09900
H1500       H  0.30305502  0.36849580  0.74511840     0.12000
H1501       H  0.34150696  0.29584151  0.69011555     0.08600
H1502       H  0.36928356  0.33151132  0.65728784     0.11400
loop_ 
_geom_bond_atom_site_label_1 
_geom_bond_atom_site_label_2 
_geom_bond_distance 
_geom_bond_site_symmetry_2 
_ccdc_geom_bond_type 
O1            C9   1.293       .  A
O1          Co21   2.095       .  S
O2           C10   1.274       .  A
O2          Co22   2.020       .  S
O3           C11   1.269       .  A
O3          Co23   1.965       .  S
O4           C12   1.259       .  A
O4          Co24   1.976       .  S
O5           C11   1.280       .  A
O5          Co22   2.027       .  S
O6           C12   1.262       .  A
O6          Co21   1.998       .  S
O7           C10   1.264       .  A
O7         Co775   1.963       .  S
O8            C9   1.266       .  A
O8         Co774   1.893       .  S
C9          C680   1.472       .  S
C10         C608   1.476       .  S
C11         C656   1.479       .  S
C12         C643   1.475       .  S
O13          C26   1.268       .  A
O13         Co21   1.963       .  S
O14          C27   1.259       .  A
O14         Co22   1.977       .  S
O15          C28   1.296       .  A
O15        Co774   2.110       .  S
O16          C29   1.272       .  A
O16        Co775   2.016       .  S
O17          C29   1.262       .  A
O17         Co22   1.963       .  S
O18          C28   1.263       .  A
O18         Co21   1.881       .  S
O19          C26   1.280       .  A
O19         Co24   2.033       .  S
O20          C27   1.263       .  A
O20         Co23   2.002       .  S
Co21         O25   1.980   1_554  S
Co22        O776   2.018       .  S
Co23        O759   1.898       .  S
Co23        O766   2.106       .  S
Co23        O776   2.006       .  S
Co24        O758   1.967   1_554  S
Co24        O767   2.016   1_554  S
Co24         O25   2.024   1_554  S
O25        Co773   2.011       .  S
O25        Co774   2.001   1_556  S
C26         C584   1.479       .  S
C27         C704   1.480       .  S
C28         C728   1.475       .  S
C29         C571   1.476       .  S
C30          C67   1.466       .  S
C30         C464   1.484       .  S
C30          N48   1.351       .  A
N31          N48   1.325       .  A
N31          N53   1.321       .  A
N31         Co68   2.089   1_565  S
C32          C70   1.462       .  S
C32          N57   1.340       .  A
C32          H77   1.081       .  S
H33          C74   1.081       .  S
C34          C38   1.462       .  S
C34          N58   1.340       .  A
C34          H63   1.081       .  S
Co35         N53   2.093   1_545  S
Co35         N43   2.093   1_545  S
Co35         N75   2.085       .  S
Co35         N51   2.092       .  S
Co35        Cl79   2.452       .  S
N36          C74   1.337       .  A
N36          N43   1.319       .  A
N36         Co37   2.074   1_554  S
Co37         N57   2.082   1_566  S
Co37        N791   2.085       .  S
Co37        N795   2.079   1_565  S
Co37        Cl79   2.453   1_566  S
C38         C523   1.480       .  S
C38          N76   1.352       .  A
N39          N46   1.320       .  A
N39          N69   1.323       .  A
N39         Co72   2.082   1_565  S
N40          N58   1.320       .  A
N40          N76   1.326       .  A
N40        Co788   2.086   1_565  S
N41          C70   1.352       .  A
N41          N51   1.325       .  A
H42          C67   1.081       .  S
N43          N64   1.326       .  A
N44          N62   1.319       .  A
N44          N49   1.324       .  A
N44        Co788   2.084       .  S
C45          C73   1.462       .  S
C45         C440   1.479       .  S
C45          N49   1.350       .  A
N46          C61   1.343       .  A
N46        Co819   2.091   1_565  S
C47          C50   1.461       .  S
C47          N75   1.339       .  A
C47          H81   1.081       .  S
C50         C403   1.481       .  S
C50          N71   1.352       .  A
N51          N57   1.320       .  A
N52          C78   1.342       .  A
N52          N54   1.320       .  A
N52        Co819   2.087       .  S
N53          C67   1.343       .  A
N54          N82   1.324       .  A
N54         Co72   2.088       .  S
H55          C78   1.081       .  S
H56          C73   1.081       .  S
N58         Co72   2.087   1_565  S
N59          N71   1.326       .  A
N59          N75   1.320       .  A
N59         Co68   2.088       .  S
C60          C74   1.458       .  S
C60         C536   1.478       .  S
C60          N64   1.354       .  A
C61          C80   1.464       .  S
C61          H65   1.081       .  S
N62          C73   1.342       .  A
N62         Co72   2.086       .  S
C66          C78   1.463       .  S
C66         C379   1.480       .  S
C66          N82   1.351       .  A
Co68        N797   2.081   1_544  S
Co68        N803   2.091   1_554  S
Co68        Cl79   2.458       .  S
N69          C80   1.349       .  A
C70         C427   1.481       .  S
Co72       Cl830   2.446       .  S
Cl79       Co823   2.448   1_554  S
C80         C488   1.478       .  S
C83         C120   1.465       .  S
C83         C272   1.483       .  S
C83         N101   1.351       .  A
N84         N101   1.325       .  A
N84         N106   1.320       .  A
N84        Co121   2.088   1_655  S
C85         C123   1.458       .  S
C85         N110   1.338       .  A
C85         H130   1.081       .  S
H86         C127   1.081       .  S
C87          C91   1.459       .  S
C87         N111   1.337       .  A
C87         H116   1.081       .  S
Co88        N106   2.095   1_455  S
Co88         N96   2.084   1_455  S
Co88        N128   2.094       .  S
Co88        N104   2.095       .  S
Co88       Cl132   2.457       .  S
N89         C127   1.339       .  A
N89          N96   1.321       .  A
N89         Co90   2.082   1_554  S
Co90        N110   2.082   1_656  S
Co90        N844   2.098       .  S
Co90        N848   2.087   1_655  S
Co90       Cl132   2.450   1_656  S
C91         C331   1.486       .  S
C91         N129   1.357       .  A
N92          N99   1.319       .  A
N92         N122   1.323       .  A
N92        Co125   2.084       .  S
N93         N111   1.320       .  A
N93         N129   1.329       .  A
N93        Co841   2.103       .  S
N94         C123   1.353       .  A
N94         N104   1.327       .  A
H95         C120   1.081       .  S
N96         N117   1.324       .  A
N97         N115   1.318       .  A
N97         N102   1.323       .  A
N97        Co841   2.081   1_455  S
C98         C126   1.466       .  S
C98         C200   1.482       .  S
C98         N102   1.349       .  A
N99         C114   1.340       .  A
N99        Co872   2.078   1_655  S
C100        C103   1.465       .  S
C100        N128   1.344       .  A
C100        H134   1.081       .  S
C103        C248   1.479       .  S
C103        N124   1.349       .  A
N104        N110   1.321       .  A
N105        C131   1.341       .  A
N105        N107   1.319       .  A
N105       Co872   2.087       .  S
N106        C120   1.343       .  A
N107        N135   1.322       .  A
N107       Co125   2.076   1_455  S
H108        C131   1.081       .  S
H109        C126   1.081       .  S
N111       Co125   2.077       .  S
N112        N124   1.324       .  A
N112        N128   1.320       .  A
N112       Co121   2.082       .  S
C113        C127   1.462       .  S
C113        C355   1.476       .  S
C113        N117   1.350       .  A
C114        C133   1.460       .  S
C114        H118   1.081       .  S
N115        C126   1.344       .  A
N115       Co125   2.089   1_455  S
C119        C131   1.464       .  S
C119        C235   1.476       .  S
C119        N135   1.349       .  A
Co121       N850   2.081   1_454  S
Co121       N856   2.077   1_554  S
Co121      Cl132   2.451       .  S
N122        C133   1.350       .  A
C123        C187   1.479       .  S
Co125      Cl883   2.449   1_655  S
Cl132      Co876   2.449   1_554  S
C133        C307   1.476       .  S
C136        H137   1.111       .  S
C136        C142   1.533       .  S
C136        C141   1.538       .  S
C136        C140   1.541       .  S
C138        H139   1.112       .  S
C138        C144   1.534       .  S
C138        C143   1.534       .  S
C138        C145   1.534       .  S
C140        C143   1.377       .  D
C140        C739   1.478       .  S
C141        C144   1.378       .  D
C141        C259   1.494       .  S
C142        C145   1.372       .  D
C142        C416   1.478       .  S
C143        C715   1.482       .  S
C144        C224   1.478       .  S
C145        C451   1.487       .  S
C146        H147   1.112       .  S
C146        C152   1.536       .  S
C146        C151   1.535       .  S
C146        C150   1.533       .  S
C148        H149   1.112       .  S
C148        C154   1.535       .  S
C148        C153   1.537       .  S
C148        C155   1.533       .  S
C150        C153   1.374       .  D
C150        C691   1.475       .  S
C151        C154   1.376       .  D
C151        C392   1.483       .  S
C152        C155   1.375       .  D
C152        C283   1.488       .  S
C153        C667   1.481       .  S
C154        C368   1.483       .  S
C155        C296   1.477       .  S
C156        H157   1.109       .  S
C156        C162   1.538       .  S
C156        C161   1.535       .  S
C156        C160   1.537       .  S
C158        H159   1.112       .  S
C158        C164   1.537       .  S
C158        C163   1.535       .  S
C158        C165   1.536       .  S
C160        C163   1.371       .  D
C160        C595   1.475       .  S
C161        C164   1.377       .  D
C161        C547   1.484       .  S
C162        C165   1.379       .  D
C162        C176   1.498       .  S
C163        C560   1.475       .  S
C164        C512   1.488       .  S
C165        C211   1.483       .  S
C166        H167   1.111       .  S
C166        C172   1.536       .  S
C166        C171   1.542       .  S
C166        C170   1.532       .  S
C168        H169   1.112       .  S
C168        C174   1.534       .  S
C168        C173   1.535       .  S
C168        C175   1.535       .  S
C170        C173   1.373       .  D
C170        C632   1.480       .  S
C171        C174   1.378       .  D
C171        C344   1.489       .  S
C172        C175   1.377       .  D
C172        C475   1.489       .  S
C173        C619   1.476       .  S
C174        C320   1.484       .  S
C175        C499   1.484       .  S
C176        C177   1.408       .  A
C176        C181   1.406       .  A
C177        H190   1.082       .  S
C177        C178   1.400       .  A
C178        H191   1.083       .  S
C178        C179   1.403       .  A
C179        C182   1.485       .  S
C179        C180   1.405       .  A
C180        H192   1.082       .  S
C180        C181   1.396       .  A
C181        H193   1.078       .  S
C182        C183   1.346       .  D
C182        H194   1.087       .  S
C183        C184   1.482       .  S
C183        H195   1.086       .  S
C184        C185   1.401       .  A
C184        C189   1.407       .  A
C185        H196   1.083       .  S
C185        C186   1.397       .  A
C186        H197   1.082       .  S
C186        C187   1.406       .  A
C187        C188   1.404       .  A
C188        H198   1.083       .  S
C188        C189   1.400       .  A
C189        H199   1.083       .  S
C200        C201   1.404       .  A
C200        C205   1.405       .  A
C201        H214   1.082       .  S
C201        C202   1.401       .  A
C202        H215   1.081       .  S
C202        C203   1.411       .  A
C203        C206   1.492       .  S
C203        C204   1.403       .  A
C204        H216   1.084       .  S
C204        C205   1.398       .  A
C205        H217   1.083       .  S
C206        C207   1.348       .  D
C206        H218   1.083       .  S
C207        C208   1.493       .  S
C207        H219   1.085       .  S
C208        C209   1.404       .  A
C208        C213   1.414       .  A
C209        H220   1.084       .  S
C209        C210   1.394       .  A
C210        H221   1.084       .  S
C210        C211   1.402       .  A
C211        C212   1.401       .  A
C212        H222   1.083       .  S
C212        C213   1.404       .  A
C213        H223   1.079       .  S
C224        C225   1.399       .  A
C224        C229   1.402       .  A
C225        H238   1.083       .  S
C225        C226   1.398       .  A
C226        H239   1.083       .  S
C226        C227   1.407       .  A
C227        C230   1.489       .  S
C227        C228   1.409       .  A
C228        H240   1.079       .  S
C228        C229   1.394       .  A
C229        H241   1.083       .  S
C230        C231   1.348       .  D
C230        H242   1.086       .  S
C231        C232   1.482       .  S
C231        H243   1.082       .  S
C232        C233   1.402       .  A
C232        C237   1.407       .  A
C233        H244   1.084       .  S
C233        C234   1.396       .  A
C234        H245   1.083       .  S
C234        C235   1.405       .  A
C235        C236   1.404       .  A
C236        H246   1.082       .  S
C236        C237   1.398       .  A
C237        H247   1.082       .  S
C248        C249   1.404       .  A
C248        C253   1.405       .  A
C249        H262   1.083       .  S
C249        C250   1.398       .  A
C250        H263   1.084       .  S
C250        C251   1.402       .  A
C251        C254   1.485       .  S
C251        C252   1.408       .  A
C252        H264   1.082       .  S
C252        C253   1.403       .  A
C253        H265   1.083       .  S
C254        C255   1.348       .  D
C254        H266   1.086       .  S
C255        C256   1.489       .  S
C255        H267   1.086       .  S
C256        C257   1.405       .  A
C256        C261   1.406       .  A
C257        H268   1.083       .  S
C257        C258   1.402       .  A
C258        H269   1.083       .  S
C258        C259   1.406       .  A
C259        C260   1.406       .  A
C260        H270   1.081       .  S
C260        C261   1.397       .  A
C261        H271   1.082       .  S
C272        C273   1.406       .  A
C272        C277   1.405       .  A
C273        H286   1.083       .  S
C273        C274   1.401       .  A
C274        H287   1.083       .  S
C274        C275   1.403       .  A
C275        C278   1.489       .  S
C275        C276   1.408       .  A
C276        H288   1.082       .  S
C276        C277   1.401       .  A
C277        H289   1.082       .  S
C278        C279   1.346       .  D
C278        H290   1.086       .  S
C279        C280   1.486       .  S
C279        H291   1.086       .  S
C280        C281   1.402       .  A
C280        C285   1.409       .  A
C281        H292   1.083       .  S
C281        C282   1.396       .  A
C282        H293   1.083       .  S
C282        C283   1.403       .  A
C283        C284   1.405       .  A
C284        H294   1.083       .  S
C284        C285   1.404       .  A
C285        H295   1.082       .  S
C296        C297   1.402       .  A
C296        C301   1.401       .  A
C297        H310   1.083       .  S
C297        C298   1.394       .  A
C298        H311   1.084       .  S
C298        C299   1.403       .  A
C299        C302   1.482       .  S
C299        C300   1.408       .  A
C300        H312   1.081       .  S
C300        C301   1.399       .  A
C301        H313   1.084       .  S
C302        C303   1.348       .  D
C302        H314   1.082       .  S
C303        C304   1.492       .  S
C303        H315   1.086       .  S
C304        C305   1.406       .  A
C304        C309   1.411       .  A
C305        H316   1.083       .  S
C305        C306   1.399       .  A
C306        H317   1.082       .  S
C306        C307   1.404       .  A
C307        C308   1.401       .  A
C308        H318   1.083       .  S
C308        C309   1.395       .  A
C309        H319   1.078       .  S
C320        C321   1.400       .  A
C320        C325   1.403       .  A
C321        H334   1.083       .  S
C321        C322   1.399       .  A
C322        H335   1.083       .  S
C322        C323   1.406       .  A
C323        C326   1.494       .  S
C323        C324   1.411       .  A
C324        H336   1.080       .  S
C324        C325   1.401       .  A
C325        H337   1.083       .  S
C326        C327   1.349       .  D
C326        H338   1.085       .  S
C327        C328   1.491       .  S
C327        H339   1.084       .  S
C328        C329   1.402       .  A
C328        C333   1.410       .  A
C329        H340   1.084       .  S
C329        C330   1.397       .  A
C330        H341   1.081       .  S
C330        C331   1.407       .  A
C331        C332   1.405       .  A
C332        H342   1.083       .  S
C332        C333   1.404       .  A
C333        H343   1.081       .  S
C344        C345   1.405       .  A
C344        C349   1.406       .  A
C345        H358   1.082       .  S
C345        C346   1.392       .  A
C346        H359   1.084       .  S
C346        C347   1.399       .  A
C347        C350   1.478       .  S
C347        C348   1.407       .  A
C348        H360   1.083       .  S
C348        C349   1.402       .  A
C349        H361   1.082       .  S
C350        C351   1.344       .  D
C350        H362   1.086       .  S
C351        C352   1.483       .  S
C351        H363   1.087       .  S
C352        C353   1.403       .  A
C352        C357   1.407       .  A
C353        H364   1.084       .  S
C353        C354   1.399       .  A
C354        H365   1.083       .  S
C354        C355   1.406       .  A
C355        C356   1.403       .  A
C356        H366   1.082       .  S
C356        C357   1.395       .  A
C357        H367   1.082       .  S
C368        C369   1.404       .  A
C368        C373   1.403       .  A
C369        H382   1.083       .  S
C369        C370   1.401       .  A
C370        H383   1.083       .  S
C370        C371   1.404       .  A
C371        C374   1.484       .  S
C371        C372   1.406       .  A
C372        H384   1.083       .  S
C372        C373   1.396       .  A
C373        H385   1.083       .  S
C374        C375   1.347       .  D
C374        H386   1.086       .  S
C375        C376   1.484       .  S
C375        H387   1.087       .  S
C376        C377   1.403       .  A
C376        C381   1.406       .  A
C377        H388   1.084       .  S
C377        C378   1.397       .  A
C378        H389   1.083       .  S
C378        C379   1.404       .  A
C379        C380   1.406       .  A
C380        H390   1.082       .  S
C380        C381   1.402       .  A
C381        H391   1.082       .  S
C392        C393   1.402       .  A
C392        C397   1.403       .  A
C393        H406   1.083       .  S
C393        C394   1.400       .  A
C394        H407   1.083       .  S
C394        C395   1.405       .  A
C395        C398   1.489       .  S
C395        C396   1.409       .  A
C396        H408   1.081       .  S
C396        C397   1.397       .  A
C397        H409   1.083       .  S
C398        C399   1.349       .  D
C398        H410   1.085       .  S
C399        C400   1.487       .  S
C399        H411   1.085       .  S
C400        C401   1.403       .  A
C400        C405   1.409       .  A
C401        H412   1.084       .  S
C401        C402   1.396       .  A
C402        H413   1.082       .  S
C402        C403   1.404       .  A
C403        C404   1.406       .  A
C404        H414   1.083       .  S
C404        C405   1.402       .  A
C405        H415   1.081       .  S
C416        C417   1.401       .  A
C416        C421   1.399       .  A
C417        H430   1.083       .  S
C417        C418   1.396       .  A
C418        H431   1.084       .  S
C418        C419   1.405       .  A
C419        C422   1.491       .  S
C419        C420   1.412       .  A
C420        H432   1.080       .  S
C420        C421   1.401       .  A
C421        H433   1.084       .  S
C422        C423   1.349       .  D
C422        H434   1.084       .  S
C423        C424   1.491       .  S
C423        H435   1.084       .  S
C424        C425   1.410       .  A
C424        C429   1.404       .  A
C425        H436   1.080       .  S
C425        C426   1.400       .  A
C426        H437   1.083       .  S
C426        C427   1.404       .  A
C427        C428   1.405       .  A
C428        H438   1.082       .  S
C428        C429   1.398       .  A
C429        H439   1.084       .  S
C440        C441   1.405       .  A
C440        C445   1.404       .  A
C441        H454   1.083       .  S
C441        C442   1.398       .  A
C442        H455   1.083       .  S
C442        C443   1.402       .  A
C443        C446   1.485       .  S
C443        C444   1.408       .  A
C444        H456   1.082       .  S
C444        C445   1.400       .  A
C445        H457   1.082       .  S
C446        C447   1.345       .  D
C446        H458   1.086       .  S
C447        C448   1.484       .  S
C447        H459   1.086       .  S
C448        C449   1.401       .  A
C448        C453   1.409       .  A
C449        H460   1.083       .  S
C449        C450   1.395       .  A
C450        H461   1.082       .  S
C450        C451   1.404       .  A
C451        C452   1.404       .  A
C452        H462   1.083       .  S
C452        C453   1.402       .  A
C453        H463   1.082       .  S
C464        C465   1.406       .  A
C464        C469   1.404       .  A
C465        H478   1.083       .  S
C465        C466   1.400       .  A
C466        H479   1.083       .  S
C466        C467   1.404       .  A
C467        C470   1.493       .  S
C467        C468   1.410       .  A
C468        H480   1.081       .  S
C468        C469   1.400       .  A
C469        H481   1.082       .  S
C470        C471   1.349       .  D
C470        H482   1.085       .  S
C471        C472   1.490       .  S
C471        H483   1.085       .  S
C472        C473   1.403       .  A
C472        C477   1.410       .  A
C473        H484   1.084       .  S
C473        C474   1.395       .  A
C474        H485   1.082       .  S
C474        C475   1.404       .  A
C475        C476   1.404       .  A
C476        H486   1.083       .  S
C476        C477   1.404       .  A
C477        H487   1.081       .  S
C488        C489   1.405       .  A
C488        C493   1.404       .  A
C489        H502   1.083       .  S
C489        C490   1.398       .  A
C490        H503   1.084       .  S
C490        C491   1.403       .  A
C491        C494   1.483       .  S
C491        C492   1.407       .  A
C492        H504   1.082       .  S
C492        C493   1.400       .  A
C493        H505   1.082       .  S
C494        C495   1.346       .  D
C494        H506   1.087       .  S
C495        C496   1.483       .  S
C495        H507   1.086       .  S
C496        C497   1.404       .  A
C496        C501   1.405       .  A
C497        H508   1.083       .  S
C497        C498   1.400       .  A
C498        H509   1.083       .  S
C498        C499   1.404       .  A
C499        C500   1.404       .  A
C500        H510   1.083       .  S
C500        C501   1.396       .  A
C501        H511   1.083       .  S
C512        C513   1.403       .  A
C512        C517   1.405       .  A
C513        H526   1.083       .  S
C513        C514   1.401       .  A
C514        H527   1.083       .  S
C514        C515   1.405       .  A
C515        C518   1.491       .  S
C515        C516   1.409       .  A
C516        H528   1.081       .  S
C516        C517   1.398       .  A
C517        H529   1.082       .  S
C518        C519   1.350       .  D
C518        H530   1.084       .  S
C519        C520   1.491       .  S
C519        H531   1.085       .  S
C520        C521   1.404       .  A
C520        C525   1.409       .  A
C521        H532   1.084       .  S
C521        C522   1.398       .  A
C522        H533   1.082       .  S
C522        C523   1.403       .  A
C523        C524   1.405       .  A
C524        H534   1.083       .  S
C524        C525   1.402       .  A
C525        H535   1.081       .  S
C536        C537   1.407       .  A
C536        C541   1.403       .  A
C537        H550   1.081       .  S
C537        C538   1.397       .  A
C538        H551   1.083       .  S
C538        C539   1.400       .  A
C539        C542   1.481       .  S
C539        C540   1.407       .  A
C540        H552   1.083       .  S
C540        C541   1.399       .  A
C541        H553   1.083       .  S
C542        C543   1.342       .  D
C542        H554   1.086       .  S
C543        C544   1.480       .  S
C543        H555   1.087       .  S
C544        C545   1.399       .  A
C544        C549   1.408       .  A
C545        H556   1.083       .  S
C545        C546   1.392       .  A
C546        H557   1.081       .  S
C546        C547   1.404       .  A
C547        C548   1.403       .  A
C548        H558   1.083       .  S
C548        C549   1.402       .  A
C549        H559   1.082       .  S
C560        C561   1.400       .  A
C560        C565   1.402       .  A
C561        H574   1.083       .  S
C561        C562   1.396       .  A
C562        H575   1.083       .  S
C562        C563   1.406       .  A
C563        C566   1.484       .  S
C563        C564   1.408       .  A
C564        H576   1.080       .  S
C564        C565   1.395       .  A
C565        H577   1.083       .  S
C566        C567   1.347       .  D
C566        H578   1.086       .  S
C567        C568   1.481       .  S
C567        H579   1.084       .  S
C568        C569   1.402       .  A
C568        C573   1.406       .  A
C569        H580   1.083       .  S
C569        C570   1.398       .  A
C570        H581   1.083       .  S
C570        C571   1.406       .  A
C571        C572   1.404       .  A
C572        H582   1.083       .  S
C572        C573   1.394       .  A
C573        H583   1.083       .  S
C584        C585   1.405       .  A
C584        C589   1.406       .  A
C585        H598   1.083       .  S
C585        C586   1.397       .  A
C586        H599   1.083       .  S
C586        C587   1.402       .  A
C587        C590   1.482       .  S
C587        C588   1.406       .  A
C588        H600   1.082       .  S
C588        C589   1.400       .  A
C589        H601   1.083       .  S
C590        C591   1.348       .  D
C590        H602   1.084       .  S
C591        C592   1.488       .  S
C591        H603   1.086       .  S
C592        C593   1.406       .  A
C592        C597   1.409       .  A
C593        H604   1.083       .  S
C593        C594   1.399       .  A
C594        H605   1.083       .  S
C594        C595   1.401       .  A
C595        C596   1.399       .  A
C596        H606   1.081       .  S
C596        C597   1.396       .  A
C597        H607   1.081       .  S
C608        C609   1.405       .  A
C608        C613   1.405       .  A
C609        H622   1.083       .  S
C609        C610   1.398       .  A
C610        H623   1.083       .  S
C610        C611   1.407       .  A
C611        C614   1.480       .  S
C611        C612   1.401       .  A
C612        H624   1.083       .  S
C612        C613   1.395       .  A
C613        H625   1.083       .  S
C614        C615   1.346       .  D
C614        H626   1.084       .  S
C615        C616   1.484       .  S
C615        H627   1.087       .  S
C616        C617   1.403       .  A
C616        C621   1.410       .  A
C617        H628   1.084       .  S
C617        C618   1.394       .  A
C618        H629   1.083       .  S
C618        C619   1.402       .  A
C619        C620   1.400       .  A
C620        H630   1.084       .  S
C620        C621   1.398       .  A
C621        H631   1.080       .  S
C632        C633   1.400       .  A
C632        C637   1.404       .  A
C633        H646   1.083       .  S
C633        C634   1.397       .  A
C634        H647   1.083       .  S
C634        C635   1.405       .  A
C635        C638   1.482       .  S
C635        C636   1.406       .  A
C636        H648   1.081       .  S
C636        C637   1.395       .  A
C637        H649   1.083       .  S
C638        C639   1.346       .  D
C638        H650   1.087       .  S
C639        C640   1.480       .  S
C639        H651   1.086       .  S
C640        C641   1.402       .  A
C640        C645   1.405       .  A
C641        H652   1.084       .  S
C641        C642   1.399       .  A
C642        H653   1.083       .  S
C642        C643   1.406       .  A
C643        C644   1.404       .  A
C644        H654   1.083       .  S
C644        C645   1.394       .  A
C645        H655   1.082       .  S
C656        C657   1.405       .  A
C656        C661   1.405       .  A
C657        H670   1.083       .  S
C657        C658   1.397       .  A
C658        H671   1.083       .  S
C658        C659   1.403       .  A
C659        C662   1.486       .  S
C659        C660   1.408       .  A
C660        H672   1.081       .  S
C660        C661   1.398       .  A
C661        H673   1.083       .  S
C662        C663   1.348       .  D
C662        H674   1.085       .  S
C663        C664   1.487       .  S
C663        H675   1.085       .  S
C664        C665   1.405       .  A
C664        C669   1.408       .  A
C665        H676   1.083       .  S
C665        C666   1.399       .  A
C666        H677   1.083       .  S
C666        C667   1.403       .  A
C667        C668   1.401       .  A
C668        H678   1.083       .  S
C668        C669   1.396       .  A
C669        H679   1.081       .  S
C680        C681   1.404       .  A
C680        C685   1.403       .  A
C681        H694   1.083       .  S
C681        C682   1.395       .  A
C682        H695   1.084       .  S
C682        C683   1.402       .  A
C683        C686   1.480       .  S
C683        C684   1.408       .  A
C684        H696   1.081       .  S
C684        C685   1.396       .  A
C685        H697   1.083       .  S
C686        C687   1.345       .  D
C686        H698   1.086       .  S
C687        C688   1.479       .  S
C687        H699   1.085       .  S
C688        C689   1.402       .  A
C688        C693   1.408       .  A
C689        H700   1.084       .  S
C689        C690   1.395       .  A
C690        H701   1.083       .  S
C690        C691   1.401       .  A
C691        C692   1.401       .  A
C692        H702   1.083       .  S
C692        C693   1.396       .  A
C693        H703   1.082       .  S
C704        C705   1.405       .  A
C704        C709   1.406       .  A
C705        H718   1.083       .  S
C705        C706   1.398       .  A
C706        H719   1.083       .  S
C706        C707   1.404       .  A
C707        C710   1.487       .  S
C707        C708   1.408       .  A
C708        H720   1.081       .  S
C708        C709   1.398       .  A
C709        H721   1.083       .  S
C710        C711   1.346       .  D
C710        H722   1.086       .  S
C711        C712   1.483       .  S
C711        H723   1.085       .  S
C712        C713   1.401       .  A
C712        C717   1.409       .  A
C713        H724   1.083       .  S
C713        C714   1.395       .  A
C714        H725   1.082       .  S
C714        C715   1.404       .  A
C715        C716   1.403       .  A
C716        H726   1.083       .  S
C716        C717   1.400       .  A
C717        H727   1.082       .  S
C728        C729   1.404       .  A
C728        C733   1.404       .  A
C729        H742   1.083       .  S
C729        C730   1.400       .  A
C730        H743   1.083       .  S
C730        C731   1.405       .  A
C731        C734   1.484       .  S
C731        C732   1.406       .  A
C732        H744   1.081       .  S
C732        C733   1.392       .  A
C733        H745   1.083       .  S
C734        C735   1.348       .  D
C734        H746   1.085       .  S
C735        C736   1.483       .  S
C735        H747   1.085       .  S
C736        C737   1.404       .  A
C736        C741   1.408       .  A
C737        H748   1.083       .  S
C737        C738   1.396       .  A
C738        H749   1.083       .  S
C738        C739   1.402       .  A
C739        C740   1.401       .  A
C740        H750   1.083       .  S
C740        C741   1.395       .  A
C741        H751   1.081       .  S
O752        C760   1.293       .  A
O752       Co772   2.091       .  S
O753        C761   1.272       .  A
O753       Co773   2.014       .  S
O754        C762   1.270       .  A
O754       Co774   1.967   1_556  S
O755        C763   1.258       .  A
O755       Co775   1.979       .  S
O756        C762   1.281       .  A
O756       Co773   2.031       .  S
O757        C763   1.261       .  A
O757       Co772   2.000       .  S
O758        C761   1.264       .  A
O759        C760   1.267       .  A
C760       C1431   1.473       .  S
C761       C1359   1.472       .  S
C762       C1407   1.482       .  S
C763       C1394   1.479       .  S
O764        C777   1.267       .  A
O764       Co772   1.958       .  S
O765        C778   1.257       .  A
O765       Co773   1.973       .  S
O766        C779   1.295       .  A
O767        C780   1.273       .  A
O768        C780   1.262       .  A
O768       Co773   1.958       .  S
O769        C779   1.263       .  A
O769       Co772   1.886       .  S
O770        C777   1.281       .  A
O770       Co775   2.036       .  S
O771        C778   1.262       .  A
O771       Co774   2.003   1_556  S
Co772       O776   1.984       .  S
Co775       O776   2.028       .  S
C777       C1335   1.478       .  S
C778       C1455   1.478       .  S
C779       C1479   1.477       .  S
C780       C1322   1.473       .  S
C781        C818   1.465       .  S
C781       C1215   1.485       .  S
C781        N799   1.351       .  A
N782        N799   1.325       .  A
N782        N804   1.321       .  A
N782       Co819   2.088   1_565  S
C783        C821   1.462       .  S
C783        N808   1.340       .  A
C783        H828   1.081       .  S
H784        C825   1.081       .  S
C785        C789   1.462       .  S
C785        N809   1.340       .  A
C785        H814   1.081       .  S
Co786       N804   2.094   1_545  S
Co786       N794   2.093   1_545  S
Co786       N826   2.084       .  S
Co786       N802   2.094       .  S
Co786      Cl830   2.449       .  S
N787        C825   1.339       .  A
N787        N794   1.320       .  A
N787       Co788   2.080   1_565  S
Co788       N808   2.082       .  S
Co788      Cl830   2.457       .  S
C789       C1274   1.480       .  S
C789        N827   1.351       .  A
N790        N797   1.320       .  A
N790        N820   1.325       .  A
N790       Co823   2.090   1_565  S
N791        N809   1.319       .  A
N791        N827   1.325       .  A
N792        C821   1.352       .  A
N792        N802   1.326       .  A
H793        C818   1.081       .  S
N794        N815   1.326       .  A
N795        N813   1.319       .  A
N795        N800   1.324       .  A
C796        C824   1.464       .  S
C796       C1191   1.480       .  S
C796        N800   1.349       .  A
N797        C812   1.341       .  A
C798        C801   1.460       .  S
C798        N826   1.339       .  A
C798        H832   1.081       .  S
C801       C1154   1.481       .  S
C801        N822   1.353       .  A
N802        N808   1.320       .  A
N803        C829   1.343       .  A
N803        N805   1.321       .  A
N804        C818   1.343       .  A
N805        N833   1.324       .  A
N805       Co823   2.086       .  S
H806        C829   1.081       .  S
H807        C824   1.081       .  S
N809       Co823   2.086   1_565  S
N810        N822   1.327       .  A
N810        N826   1.321       .  A
N810       Co819   2.094       .  S
C811        C825   1.459       .  S
C811       C1287   1.478       .  S
C811        N815   1.353       .  A
C812        C831   1.460       .  S
C812        H816   1.081       .  S
N813        C824   1.343       .  A
N813       Co823   2.092       .  S
C817        C829   1.464       .  S
C817       C1130   1.481       .  S
C817        N833   1.350       .  A
Co819      Cl830   2.461       .  S
N820        C831   1.351       .  A
C821       C1178   1.482       .  S
C831       C1239   1.477       .  S
C834        C871   1.464       .  S
C834       C1023   1.482       .  S
C834        N852   1.351       .  A
N835        N852   1.324       .  A
N835        N857   1.320       .  A
N835       Co872   2.089   1_655  S
C836        C874   1.458       .  S
C836        N861   1.340       .  A
C836        H881   1.081       .  S
H837        C878   1.081       .  S
C838        C842   1.462       .  S
C838        N862   1.340       .  A
C838        H867   1.081       .  S
Co839       N857   2.091   1_455  S
Co839       N847   2.086   1_455  S
Co839       N879   2.098       .  S
Co839       N855   2.087       .  S
Co839      Cl883   2.457       .  S
N840        C878   1.339       .  A
N840        N847   1.321       .  A
N840       Co841   2.082       .  S
Co841       N861   2.087   1_655  S
Co841      Cl883   2.450   1_655  S
C842       C1082   1.486       .  S
C842        N880   1.355       .  A
N843        N850   1.320       .  A
N843        N873   1.323       .  A
N843       Co876   2.082   1_655  S
N844        N862   1.319       .  A
N844        N880   1.328       .  A
N845        C874   1.351       .  A
N845        N855   1.325       .  A
H846        C871   1.081       .  S
N847        N868   1.324       .  A
N848        N866   1.318       .  A
N848        N853   1.325       .  A
C849        C877   1.464       .  S
C849        C951   1.483       .  S
C849        N853   1.352       .  A
N850        C865   1.340       .  A
C851        C854   1.466       .  S
C851        N879   1.345       .  A
C851        H885   1.081       .  S
C854        C999   1.481       .  S
C854        N875   1.349       .  A
N855        N861   1.322       .  A
N856        C882   1.339       .  A
N856        N858   1.319       .  A
N857        C871   1.344       .  A
N858        N886   1.322       .  A
N858       Co876   2.078       .  S
H859        C882   1.081       .  S
H860        C877   1.081       .  S
N862       Co876   2.083   1_655  S
N863        N875   1.324       .  A
N863        N879   1.320       .  A
N863       Co872   2.079       .  S
C864        C878   1.462       .  S
C864       C1106   1.479       .  S
C864        N868   1.351       .  A
C865        C884   1.461       .  S
C865        H869   1.081       .  S
N866        C877   1.341       .  A
N866       Co876   2.085       .  S
C870        C882   1.461       .  S
C870        C986   1.472       .  S
C870        N886   1.349       .  A
Co872      Cl883   2.450       .  S
N873        C884   1.350       .  A
C874        C938   1.474       .  S
C884       C1058   1.475       .  S
C887        H888   1.111       .  S
C887        C893   1.536       .  S
C887        C892   1.540       .  S
C887        C891   1.539       .  S
C889        H890   1.112       .  S
C889        C895   1.533       .  S
C889        C894   1.533       .  S
C889        C896   1.532       .  S
C891        C894   1.375       .  D
C891       C1490   1.477       .  S
C892        C895   1.379       .  D
C892       C1010   1.499       .  S
C893        C896   1.373       .  D
C893       C1167   1.477       .  S
C894       C1466   1.478       .  S
C895        C975   1.475       .  S
C896       C1202   1.489       .  S
C897        H898   1.112       .  S
C897        C903   1.535       .  S
C897        C902   1.535       .  S
C897        C901   1.534       .  S
C899        H900   1.112       .  S
C899        C905   1.538       .  S
C899        C904   1.537       .  S
C899        C906   1.535       .  S
C901        C904   1.375       .  D
C901       C1442   1.473       .  S
C902        C905   1.375       .  D
C902       C1143   1.482       .  S
C903        C906   1.374       .  D
C903       C1034   1.488       .  S
C904       C1418   1.483       .  S
C905       C1119   1.485       .  S
C906       C1047   1.476       .  S
C907        H908   1.110       .  S
C907        C913   1.538       .  S
C907        C912   1.535       .  S
C907        C911   1.537       .  S
C909        H910   1.111       .  S
C909        C915   1.536       .  S
C909        C914   1.536       .  S
C909        C916   1.534       .  S
C911        C914   1.372       .  D
C911       C1346   1.475       .  S
C912        C915   1.375       .  D
C912       C1298   1.489       .  S
C913        C916   1.378       .  D
C913        C927   1.493       .  S
C914       C1311   1.477       .  S
C915       C1263   1.480       .  S
C916        C962   1.488       .  S
C917        H918   1.111       .  S
C917        C923   1.536       .  S
C917        C922   1.543       .  S
C917        C921   1.532       .  S
C919        H920   1.111       .  S
C919        C925   1.534       .  S
C919        C924   1.536       .  S
C919        C926   1.537       .  S
C921        C924   1.372       .  D
C921       C1383   1.482       .  S
C922        C925   1.379       .  D
C922       C1095   1.489       .  S
C923        C926   1.378       .  D
C923       C1226   1.490       .  S
C924       C1370   1.474       .  S
C925       C1071   1.485       .  S
C926       C1250   1.486       .  S
C927        C928   1.406       .  A
C927        C932   1.405       .  A
C928        H941   1.082       .  S
C928        C929   1.398       .  A
C929        H942   1.083       .  S
C929        C930   1.403       .  A
C930        C933   1.484       .  S
C930        C931   1.406       .  A
C931        H943   1.081       .  S
C931        C932   1.396       .  A
C932        H944   1.079       .  S
C933        C934   1.347       .  D
C933        H945   1.086       .  S
C934        C935   1.483       .  S
C934        H946   1.085       .  S
C935        C936   1.403       .  A
C935        C940   1.407       .  A
C936        H947   1.083       .  S
C936        C937   1.398       .  A
C937        H948   1.083       .  S
C937        C938   1.404       .  A
C938        C939   1.403       .  A
C939        H949   1.083       .  S
C939        C940   1.397       .  A
C940        H950   1.082       .  S
C951        C952   1.404       .  A
C951        C956   1.405       .  A
C952        H965   1.082       .  S
C952        C953   1.400       .  A
C953        H966   1.080       .  S
C953        C954   1.410       .  A
C954        C957   1.495       .  S
C954        C955   1.405       .  A
C955        H967   1.083       .  S
C955        C956   1.400       .  A
C956        H968   1.083       .  S
C957        C958   1.350       .  D
C957        H969   1.083       .  S
C958        C959   1.495       .  S
C958        H970   1.084       .  S
C959        C960   1.405       .  A
C959        C964   1.413       .  A
C960        H971   1.083       .  S
C960        C961   1.395       .  A
C961        H972   1.084       .  S
C961        C962   1.403       .  A
C962        C963   1.402       .  A
C963        H973   1.083       .  S
C963        C964   1.404       .  A
C964        H974   1.079       .  S
C975        C976   1.399       .  A
C975        C980   1.402       .  A
C976        H989   1.083       .  S
C976        C977   1.397       .  A
C977        H990   1.083       .  S
C977        C978   1.405       .  A
C978        C981   1.481       .  S
C978        C979   1.407       .  A
C979        H991   1.080       .  S
C979        C980   1.392       .  A
C980        H992   1.083       .  S
C981        C982   1.346       .  D
C981        H993   1.086       .  S
C982        C983   1.475       .  S
C982        H994   1.084       .  S
C983        C984   1.401       .  A
C983        C988   1.405       .  A
C984        H995   1.084       .  S
C984        C985   1.395       .  A
C985        H996   1.083       .  S
C985        C986   1.404       .  A
C986        C987   1.404       .  A
C987        H997   1.082       .  S
C987        C988   1.395       .  A
C988        H998   1.083       .  S
C999       C1000   1.404       .  A
C999       C1004   1.406       .  A
C1000      H1013   1.083       .  S
C1000      C1001   1.398       .  A
C1001      H1014   1.083       .  S
C1001      C1002   1.403       .  A
C1002      C1005   1.487       .  S
C1002      C1003   1.408       .  A
C1003      H1015   1.083       .  S
C1003      C1004   1.404       .  A
C1004      H1016   1.082       .  S
C1005      C1006   1.348       .  D
C1005      H1017   1.086       .  S
C1006      C1007   1.490       .  S
C1006      H1018   1.086       .  S
C1007      C1008   1.404       .  A
C1007      C1012   1.406       .  A
C1008      H1019   1.083       .  S
C1008      C1009   1.402       .  A
C1009      H1020   1.083       .  S
C1009      C1010   1.407       .  A
C1010      C1011   1.407       .  A
C1011      H1021   1.082       .  S
C1011      C1012   1.399       .  A
C1012      H1022   1.082       .  S
C1023      C1024   1.405       .  A
C1023      C1028   1.405       .  A
C1024      H1037   1.083       .  S
C1024      C1025   1.399       .  A
C1025      H1038   1.083       .  S
C1025      C1026   1.403       .  A
C1026      C1029   1.489       .  S
C1026      C1027   1.409       .  A
C1027      H1039   1.082       .  S
C1027      C1028   1.403       .  A
C1028      H1040   1.083       .  S
C1029      C1030   1.346       .  D
C1029      H1041   1.086       .  S
C1030      C1031   1.489       .  S
C1030      H1042   1.086       .  S
C1031      C1032   1.403       .  A
C1031      C1036   1.410       .  A
C1032      H1043   1.083       .  S
C1032      C1033   1.398       .  A
C1033      H1044   1.082       .  S
C1033      C1034   1.404       .  A
C1034      C1035   1.404       .  A
C1035      H1045   1.083       .  S
C1035      C1036   1.403       .  A
C1036      H1046   1.082       .  S
C1047      C1048   1.403       .  A
C1047      C1052   1.399       .  A
C1048      H1061   1.083       .  S
C1048      C1049   1.395       .  A
C1049      H1062   1.084       .  S
C1049      C1050   1.403       .  A
C1050      C1053   1.483       .  S
C1050      C1051   1.409       .  A
C1051      H1063   1.081       .  S
C1051      C1052   1.397       .  A
C1052      H1064   1.083       .  S
C1053      C1054   1.346       .  D
C1053      H1065   1.085       .  S
C1054      C1055   1.484       .  S
C1054      H1066   1.085       .  S
C1055      C1056   1.403       .  A
C1055      C1060   1.408       .  A
C1056      H1067   1.083       .  S
C1056      C1057   1.397       .  A
C1057      H1068   1.082       .  S
C1057      C1058   1.403       .  A
C1058      C1059   1.403       .  A
C1059      H1069   1.083       .  S
C1059      C1060   1.397       .  A
C1060      H1070   1.081       .  S
C1071      C1072   1.401       .  A
C1071      C1076   1.403       .  A
C1072      H1085   1.083       .  S
C1072      C1073   1.401       .  A
C1073      H1086   1.083       .  S
C1073      C1074   1.406       .  A
C1074      C1077   1.496       .  S
C1074      C1075   1.411       .  A
C1075      H1087   1.080       .  S
C1075      C1076   1.402       .  A
C1076      H1088   1.083       .  S
C1077      C1078   1.351       .  D
C1077      H1089   1.085       .  S
C1078      C1079   1.494       .  S
C1078      H1090   1.084       .  S
C1079      C1080   1.404       .  A
C1079      C1084   1.410       .  A
C1080      H1091   1.083       .  S
C1080      C1081   1.399       .  A
C1081      H1092   1.082       .  S
C1081      C1082   1.405       .  A
C1082      C1083   1.406       .  A
C1083      H1093   1.083       .  S
C1083      C1084   1.404       .  A
C1084      H1094   1.081       .  S
C1095      C1096   1.406       .  A
C1095      C1100   1.406       .  A
C1096      H1109   1.082       .  S
C1096      C1097   1.393       .  A
C1097      H1110   1.084       .  S
C1097      C1098   1.399       .  A
C1098      C1101   1.479       .  S
C1098      C1099   1.407       .  A
C1099      H1111   1.083       .  S
C1099      C1100   1.401       .  A
C1100      H1112   1.082       .  S
C1101      C1102   1.344       .  D
C1101      H1113   1.086       .  S
C1102      C1103   1.484       .  S
C1102      H1114   1.087       .  S
C1103      C1104   1.403       .  A
C1103      C1108   1.407       .  A
C1104      H1115   1.084       .  S
C1104      C1105   1.399       .  A
C1105      H1116   1.083       .  S
C1105      C1106   1.405       .  A
C1106      C1107   1.404       .  A
C1107      H1117   1.082       .  S
C1107      C1108   1.397       .  A
C1108      H1118   1.082       .  S
C1119      C1120   1.404       .  A
C1119      C1124   1.403       .  A
C1120      H1133   1.083       .  S
C1120      C1121   1.402       .  A
C1121      H1134   1.083       .  S
C1121      C1122   1.405       .  A
C1122      C1125   1.487       .  S
C1122      C1123   1.406       .  A
C1123      H1135   1.083       .  S
C1123      C1124   1.397       .  A
C1124      H1136   1.083       .  S
C1125      C1126   1.347       .  D
C1125      H1137   1.086       .  S
C1126      C1127   1.485       .  S
C1126      H1138   1.087       .  S
C1127      C1128   1.403       .  A
C1127      C1132   1.407       .  A
C1128      H1139   1.083       .  S
C1128      C1129   1.398       .  A
C1129      H1140   1.083       .  S
C1129      C1130   1.404       .  A
C1130      C1131   1.406       .  A
C1131      H1141   1.082       .  S
C1131      C1132   1.402       .  A
C1132      H1142   1.082       .  S
C1143      C1144   1.401       .  A
C1143      C1148   1.404       .  A
C1144      H1157   1.083       .  S
C1144      C1145   1.399       .  A
C1145      H1158   1.083       .  S
C1145      C1146   1.404       .  A
C1146      C1149   1.488       .  S
C1146      C1147   1.409       .  A
C1147      H1159   1.081       .  S
C1147      C1148   1.398       .  A
C1148      H1160   1.083       .  S
C1149      C1150   1.349       .  D
C1149      H1161   1.084       .  S
C1150      C1151   1.490       .  S
C1150      H1162   1.086       .  S
C1151      C1152   1.404       .  A
C1151      C1156   1.410       .  A
C1152      H1163   1.084       .  S
C1152      C1153   1.397       .  A
C1153      H1164   1.082       .  S
C1153      C1154   1.404       .  A
C1154      C1155   1.404       .  A
C1155      H1165   1.083       .  S
C1155      C1156   1.402       .  A
C1156      H1166   1.081       .  S
C1167      C1168   1.402       .  A
C1167      C1172   1.398       .  A
C1168      H1181   1.083       .  S
C1168      C1169   1.397       .  A
C1169      H1182   1.083       .  S
C1169      C1170   1.405       .  A
C1170      C1173   1.491       .  S
C1170      C1171   1.412       .  A
C1171      H1183   1.080       .  S
C1171      C1172   1.400       .  A
C1172      H1184   1.083       .  S
C1173      C1174   1.349       .  D
C1173      H1185   1.084       .  S
C1174      C1175   1.491       .  S
C1174      H1186   1.084       .  S
C1175      C1176   1.410       .  A
C1175      C1180   1.404       .  A
C1176      H1187   1.080       .  S
C1176      C1177   1.401       .  A
C1177      H1188   1.083       .  S
C1177      C1178   1.405       .  A
C1178      C1179   1.404       .  A
C1179      H1189   1.081       .  S
C1179      C1180   1.397       .  A
C1180      H1190   1.084       .  S
C1191      C1192   1.405       .  A
C1191      C1196   1.403       .  A
C1192      H1205   1.083       .  S
C1192      C1193   1.399       .  A
C1193      H1206   1.083       .  S
C1193      C1194   1.403       .  A
C1194      C1197   1.488       .  S
C1194      C1195   1.409       .  A
C1195      H1207   1.082       .  S
C1195      C1196   1.401       .  A
C1196      H1208   1.083       .  S
C1197      C1198   1.346       .  D
C1197      H1209   1.086       .  S
C1198      C1199   1.486       .  S
C1198      H1210   1.086       .  S
C1199      C1200   1.401       .  A
C1199      C1204   1.409       .  A
C1200      H1211   1.083       .  S
C1200      C1201   1.395       .  A
C1201      H1212   1.082       .  S
C1201      C1202   1.404       .  A
C1202      C1203   1.405       .  A
C1203      H1213   1.083       .  S
C1203      C1204   1.404       .  A
C1204      H1214   1.082       .  S
C1215      C1216   1.405       .  A
C1215      C1220   1.404       .  A
C1216      H1229   1.083       .  S
C1216      C1217   1.401       .  A
C1217      H1230   1.083       .  S
C1217      C1218   1.405       .  A
C1218      C1221   1.495       .  S
C1218      C1219   1.410       .  A
C1219      H1231   1.080       .  S
C1219      C1220   1.400       .  A
C1220      H1232   1.082       .  S
C1221      C1222   1.350       .  D
C1221      H1233   1.085       .  S
C1222      C1223   1.491       .  S
C1222      H1234   1.084       .  S
C1223      C1224   1.404       .  A
C1223      C1228   1.410       .  A
C1224      H1235   1.084       .  S
C1224      C1225   1.396       .  A
C1225      H1236   1.083       .  S
C1225      C1226   1.404       .  A
C1226      C1227   1.404       .  A
C1227      H1237   1.083       .  S
C1227      C1228   1.404       .  A
C1228      H1238   1.081       .  S
C1239      C1240   1.403       .  A
C1239      C1244   1.406       .  A
C1240      H1253   1.083       .  S
C1240      C1241   1.397       .  A
C1241      H1254   1.084       .  S
C1241      C1242   1.403       .  A
C1242      C1245   1.482       .  S
C1242      C1243   1.406       .  A
C1243      H1255   1.082       .  S
C1243      C1244   1.401       .  A
C1244      H1256   1.083       .  S
C1245      C1246   1.346       .  D
C1245      H1257   1.087       .  S
C1246      C1247   1.484       .  S
C1246      H1258   1.086       .  S
C1247      C1248   1.404       .  A
C1247      C1252   1.405       .  A
C1248      H1259   1.083       .  S
C1248      C1249   1.401       .  A
C1249      H1260   1.083       .  S
C1249      C1250   1.405       .  A
C1250      C1251   1.404       .  A
C1251      H1261   1.083       .  S
C1251      C1252   1.396       .  A
C1252      H1262   1.083       .  S
C1263      C1264   1.399       .  A
C1263      C1268   1.402       .  A
C1264      H1277   1.083       .  S
C1264      C1265   1.400       .  A
C1265      H1278   1.083       .  S
C1265      C1266   1.407       .  A
C1266      C1269   1.492       .  S
C1266      C1267   1.410       .  A
C1267      H1279   1.079       .  S
C1267      C1268   1.397       .  A
C1268      H1280   1.084       .  S
C1269      C1270   1.349       .  D
C1269      H1281   1.085       .  S
C1270      C1271   1.487       .  S
C1270      H1282   1.083       .  S
C1271      C1272   1.403       .  A
C1271      C1276   1.408       .  A
C1272      H1283   1.084       .  S
C1272      C1273   1.398       .  A
C1273      H1284   1.082       .  S
C1273      C1274   1.404       .  A
C1274      C1275   1.405       .  A
C1275      H1285   1.083       .  S
C1275      C1276   1.400       .  A
C1276      H1286   1.082       .  S
C1287      C1288   1.405       .  A
C1287      C1292   1.402       .  A
C1288      H1301   1.082       .  S
C1288      C1289   1.399       .  A
C1289      H1302   1.083       .  S
C1289      C1290   1.403       .  A
C1290      C1293   1.487       .  S
C1290      C1291   1.409       .  A
C1291      H1303   1.082       .  S
C1291      C1292   1.400       .  A
C1292      H1304   1.083       .  S
C1293      C1294   1.345       .  D
C1293      H1305   1.086       .  S
C1294      C1295   1.484       .  S
C1294      H1306   1.086       .  S
C1295      C1296   1.400       .  A
C1295      C1300   1.409       .  A
C1296      H1307   1.084       .  S
C1296      C1297   1.393       .  A
C1297      H1308   1.080       .  S
C1297      C1298   1.404       .  A
C1298      C1299   1.405       .  A
C1299      H1309   1.083       .  S
C1299      C1300   1.404       .  A
C1300      H1310   1.082       .  S
C1311      C1312   1.402       .  A
C1311      C1316   1.402       .  A
C1312      H1325   1.082       .  S
C1312      C1313   1.396       .  A
C1313      H1326   1.084       .  S
C1313      C1314   1.405       .  A
C1314      C1317   1.481       .  S
C1314      C1315   1.406       .  A
C1315      H1327   1.080       .  S
C1315      C1316   1.392       .  A
C1316      H1328   1.083       .  S
C1317      C1318   1.347       .  D
C1317      H1329   1.087       .  S
C1318      C1319   1.476       .  S
C1318      H1330   1.084       .  S
C1319      C1320   1.402       .  A
C1319      C1324   1.404       .  A
C1320      H1331   1.083       .  S
C1320      C1321   1.397       .  A
C1321      H1332   1.083       .  S
C1321      C1322   1.405       .  A
C1322      C1323   1.405       .  A
C1323      H1333   1.083       .  S
C1323      C1324   1.392       .  A
C1324      H1334   1.083       .  S
C1335      C1336   1.405       .  A
C1335      C1340   1.406       .  A
C1336      H1349   1.083       .  S
C1336      C1337   1.395       .  A
C1337      H1350   1.084       .  S
C1337      C1338   1.402       .  A
C1338      C1341   1.482       .  S
C1338      C1339   1.407       .  A
C1339      H1351   1.082       .  S
C1339      C1340   1.400       .  A
C1340      H1352   1.083       .  S
C1341      C1342   1.348       .  D
C1341      H1353   1.084       .  S
C1342      C1343   1.489       .  S
C1342      H1354   1.086       .  S
C1343      C1344   1.406       .  A
C1343      C1348   1.410       .  A
C1344      H1355   1.083       .  S
C1344      C1345   1.400       .  A
C1345      H1356   1.083       .  S
C1345      C1346   1.401       .  A
C1346      C1347   1.398       .  A
C1347      H1357   1.082       .  S
C1347      C1348   1.395       .  A
C1348      H1358   1.080       .  S
C1359      C1360   1.404       .  A
C1359      C1364   1.404       .  A
C1360      H1373   1.083       .  S
C1360      C1361   1.396       .  A
C1361      H1374   1.082       .  S
C1361      C1362   1.406       .  A
C1362      C1365   1.479       .  S
C1362      C1363   1.401       .  A
C1363      H1375   1.083       .  S
C1363      C1364   1.396       .  A
C1364      H1376   1.083       .  S
C1365      C1366   1.345       .  D
C1365      H1377   1.084       .  S
C1366      C1367   1.481       .  S
C1366      H1378   1.086       .  S
C1367      C1368   1.403       .  A
C1367      C1372   1.410       .  A
C1368      H1379   1.083       .  S
C1368      C1369   1.393       .  A
C1369      H1380   1.083       .  S
C1369      C1370   1.401       .  A
C1370      C1371   1.400       .  A
C1371      H1381   1.083       .  S
C1371      C1372   1.398       .  A
C1372      H1382   1.081       .  S
C1383      C1384   1.401       .  A
C1383      C1388   1.404       .  A
C1384      H1397   1.083       .  S
C1384      C1385   1.398       .  A
C1385      H1398   1.083       .  S
C1385      C1386   1.405       .  A
C1386      C1389   1.484       .  S
C1386      C1387   1.407       .  A
C1387      H1399   1.082       .  S
C1387      C1388   1.397       .  A
C1388      H1400   1.083       .  S
C1389      C1390   1.346       .  D
C1389      H1401   1.087       .  S
C1390      C1391   1.482       .  S
C1390      H1402   1.086       .  S
C1391      C1392   1.402       .  A
C1391      C1396   1.406       .  A
C1392      H1403   1.084       .  S
C1392      C1393   1.399       .  A
C1393      H1404   1.083       .  S
C1393      C1394   1.406       .  A
C1394      C1395   1.406       .  A
C1395      H1405   1.083       .  S
C1395      C1396   1.398       .  A
C1396      H1406   1.083       .  S
C1407      C1408   1.406       .  A
C1407      C1412   1.405       .  A
C1408      H1421   1.083       .  S
C1408      C1409   1.399       .  A
C1409      H1422   1.083       .  S
C1409      C1410   1.404       .  A
C1410      C1413   1.489       .  S
C1410      C1411   1.408       .  A
C1411      H1423   1.082       .  S
C1411      C1412   1.398       .  A
C1412      H1424   1.083       .  S
C1413      C1414   1.350       .  D
C1413      H1425   1.083       .  S
C1414      C1415   1.492       .  S
C1414      H1426   1.085       .  S
C1415      C1416   1.406       .  A
C1415      C1420   1.410       .  A
C1416      H1427   1.083       .  S
C1416      C1417   1.397       .  A
C1417      H1428   1.083       .  S
C1417      C1418   1.401       .  A
C1418      C1419   1.403       .  A
C1419      H1429   1.083       .  S
C1419      C1420   1.399       .  A
C1420      H1430   1.080       .  S
C1431      C1432   1.404       .  A
C1431      C1436   1.404       .  A
C1432      H1445   1.083       .  S
C1432      C1433   1.394       .  A
C1433      H1446   1.083       .  S
C1433      C1434   1.401       .  A
C1434      C1437   1.480       .  S
C1434      C1435   1.408       .  A
C1435      H1447   1.082       .  S
C1435      C1436   1.397       .  A
C1436      H1448   1.083       .  S
C1437      C1438   1.344       .  D
C1437      H1449   1.086       .  S
C1438      C1439   1.479       .  S
C1438      H1450   1.085       .  S
C1439      C1440   1.401       .  A
C1439      C1444   1.409       .  A
C1440      H1451   1.083       .  S
C1440      C1441   1.394       .  A
C1441      H1452   1.083       .  S
C1441      C1442   1.401       .  A
C1442      C1443   1.401       .  A
C1443      H1453   1.083       .  S
C1443      C1444   1.396       .  A
C1444      H1454   1.082       .  S
C1455      C1456   1.404       .  A
C1455      C1460   1.405       .  A
C1456      H1469   1.083       .  S
C1456      C1457   1.398       .  A
C1457      H1470   1.083       .  S
C1457      C1458   1.404       .  A
C1458      C1461   1.487       .  S
C1458      C1459   1.408       .  A
C1459      H1471   1.081       .  S
C1459      C1460   1.396       .  A
C1460      H1472   1.083       .  S
C1461      C1462   1.347       .  D
C1461      H1473   1.085       .  S
C1462      C1463   1.483       .  S
C1462      H1474   1.084       .  S
C1463      C1464   1.402       .  A
C1463      C1468   1.409       .  A
C1464      H1475   1.083       .  S
C1464      C1465   1.395       .  A
C1465      H1476   1.083       .  S
C1465      C1466   1.401       .  A
C1466      C1467   1.402       .  A
C1467      H1477   1.083       .  S
C1467      C1468   1.399       .  A
C1468      H1478   1.082       .  S
C1479      C1480   1.404       .  A
C1479      C1484   1.404       .  A
C1480      H1493   1.083       .  S
C1480      C1481   1.400       .  A
C1481      H1494   1.084       .  S
C1481      C1482   1.405       .  A
C1482      C1485   1.486       .  S
C1482      C1483   1.407       .  A
C1483      H1495   1.080       .  S
C1483      C1484   1.394       .  A
C1484      H1496   1.083       .  S
C1485      C1486   1.348       .  D
C1485      H1497   1.085       .  S
C1486      C1487   1.484       .  S
C1486      H1498   1.085       .  S
C1487      C1488   1.404       .  A
C1487      C1492   1.408       .  A
C1488      H1499   1.084       .  S
C1488      C1489   1.396       .  A
C1489      H1500   1.083       .  S
C1489      C1490   1.402       .  A
C1490      C1491   1.401       .  A
C1491      H1501   1.084       .  S
C1491      C1492   1.396       .  A
C1492      H1502   1.081       .  S
