geometry optimzed in LAMMPS
_audit_creation_date              2020-11-30 
_audit_creation_method            'lammps2cif' 
_symmetry_space_group_name_H-M    'P1' 
_symmetry_Int_Tables_number       1 
_symmetry_cell_setting            triclinic 
loop_ 
_symmetry_equiv_pos_as_xyz 
  x,y,z 
_cell_length_a                    34.10465924 
_cell_length_b                    34.20944467522391 
_cell_length_c                    34.38305926281611 
_cell_angle_alpha                 87.5779883828914 
_cell_angle_beta                  93.35585545771517 
_cell_angle_gamma                 91.09775373729283 
loop_ 
_atom_site_label 
_atom_site_type_symbol 
_atom_site_fract_x 
_atom_site_fract_y 
_atom_site_fract_z 
_atom_site_charge 
O1          O  0.81945700  0.49997260  0.78597991    -0.74900
O2          O  0.88164336  0.50518199  0.69682899    -0.75000
O3          O  0.89635878  0.50293341  0.77559151    -0.75000
O4          O  0.80433903  0.50184195  0.70691404    -0.75100
O5          O  0.80338379  0.56698164  0.70592279    -0.75000
O6          O  0.89539376  0.56804858  0.77570362    -0.75000
O7          O  0.88111324  0.57022664  0.69624482    -0.74900
O8          O  0.81829894  0.56500676  0.78488683    -0.75000
Ni9        Ni  0.85053228  0.50020116  0.74127173     1.25400
Ni10       Ni  0.84956973  0.56991491  0.74055214     1.25400
C11         C  0.80979529  0.53177612  0.80108513     0.87300
C12         C  0.89048125  0.53846506  0.68091874     0.87200
C13         C  0.90944514  0.53530588  0.78890457     0.87200
C14         C  0.78930418  0.53423320  0.69411025     0.87400
O15         O  0.57093649  0.74735828  0.74153452    -0.74900
O16         O  0.57120442  0.82638260  0.81800120    -0.75000
O17         O  0.57228957  0.74582581  0.81969506    -0.75000
O18         O  0.56928744  0.82768682  0.73931341    -0.75100
O19         O  0.50404517  0.82629757  0.73778166    -0.75000
O20         O  0.50698279  0.74198799  0.81611387    -0.75000
O21         O  0.50590465  0.82262330  0.81697683    -0.74900
O22         O  0.50558281  0.74583386  0.73793514    -0.75000
Ni23       Ni  0.57319377  0.78697134  0.77974662     1.25400
Ni24       Ni  0.50330136  0.78424796  0.77714871     1.25400
C25         C  0.53835862  0.73240599  0.72820739     0.87300
C26         C  0.53857421  0.83791543  0.82983718     0.87200
C27         C  0.54024559  0.72882263  0.82956695     0.87200
C28         C  0.53617709  0.84124227  0.72569895     0.87400
O29         O  0.76515750  0.79297310  0.50346774    -0.74900
O30         O  0.84601618  0.87194728  0.50993065    -0.75000
O31         O  0.76435449  0.87037081  0.51040191    -0.75000
O32         O  0.84413523  0.79445055  0.50307966    -0.75100
O33         O  0.83943334  0.80252267  0.43831782    -0.75000
O34         O  0.76028579  0.87991332  0.44576304    -0.75000
O35         O  0.84198736  0.88018353  0.44534540    -0.74900
O36         O  0.75953615  0.80232442  0.43871171    -0.75000
Ni37       Ni  0.80504279  0.83257224  0.50902395     1.25400
Ni38       Ni  0.80019057  0.84190163  0.43972409     1.25400
C39         C  0.74909572  0.78478971  0.47016596     0.87300
C40         C  0.86008419  0.88603824  0.47839316     0.87200
C41         C  0.74656482  0.88446855  0.47917003     0.87200
C42         C  0.85484594  0.78581522  0.46949962     0.87400
O43         O  0.58759426  0.58328486  0.95177278    -0.81400
O44         O  0.66577499  0.42619741  0.98163562    -0.66100
O45         O  0.62146630  0.51764725  0.93298533    -1.12700
C46         C  0.50109264  0.46154896  0.97441280     1.05500
O47         O  0.61567216  0.38774410  0.96338753    -0.79300
O48         O  0.54991881  0.41388324  0.92604706    -0.66900
Ni49       Ni  0.64034000  0.56767726  0.94577065     1.34900
C50         C  0.55573334  0.43603556  0.89631821     0.84200
O51         O  0.69402995  0.48660031  0.93764225    -0.79800
O52         O  0.69352206  0.55257840  0.93800784    -0.90100
C53         C  0.65195648  0.39279292  0.97296834     0.83800
O54         O  0.64719460  0.55979366  0.00096669    -0.68300
O55         O  0.52251750  0.43671412  0.99390975    -0.87600
C56         C  0.65824801  0.53003517  0.02155546     0.84600
C57         C  0.70901017  0.52031770  0.92942377     1.06200
H58         H  0.59268069  0.47394265  0.00298622     0.38000
O59         O  0.59295185  0.46489753  0.97676791    -1.10200
O60         O  0.56651287  0.47197051  0.89833067    -0.66900
Ni61       Ni  0.56852882  0.50476865  0.94326773     1.26300
O62         O  0.66089415  0.49652061  0.00745007    -0.67100
O63         O  0.51505168  0.48907095  0.95270354    -0.79400
C64         C  0.56359824  0.58297910  0.92212627     0.84000
O65         O  0.54967017  0.54978044  0.91144566    -0.66600
Ni66       Ni  0.56994966  0.41431482  0.97882134     1.27400
Ni67       Ni  0.64457541  0.47357312  0.95863298     1.26100
H68         H  0.62454674  0.51565901  0.90537471     0.38600
O69         O  0.64696352  0.52646247  0.46811473    -0.81400
O70         O  0.56276404  0.58292352  0.61437885    -0.66100
O71         O  0.58407129  0.54218059  0.51486120    -1.12700
C72         C  0.62494954  0.67420537  0.49124096     1.05500
O73         O  0.53162718  0.62862373  0.57980565    -0.79300
O74         O  0.53430496  0.65663005  0.50675870    -0.66900
Ni75       Ni  0.62016187  0.50129580  0.51096337     1.34900
C76         C  0.52304093  0.62908706  0.48517155     0.84200
O77         O  0.55530820  0.50923370  0.58349005    -0.79800
O78         O  0.59551101  0.47177824  0.55175784    -0.90100
C79         C  0.54275914  0.61418354  0.61288855     0.83800
O80         O  0.66026644  0.52008836  0.54719523    -0.68300
O81         O  0.60920967  0.68304394  0.52238452    -0.87600
C82         C  0.65705497  0.53498003  0.58008035     0.84600
C83         C  0.56946944  0.47590821  0.57650094     1.06200
H84         H  0.62230290  0.61155853  0.55570192     0.38000
O85         O  0.59585921  0.60813151  0.54454604    -1.10200
O86         O  0.54521547  0.60109245  0.47793220    -0.66900
Ni87       Ni  0.60011094  0.59168701  0.49318906     1.26300
O88         O  0.62488184  0.54808275  0.59053189    -0.67100
O89         O  0.61802285  0.64231183  0.47373683    -0.79400
C90         C  0.63295232  0.54675379  0.43871733     0.84000
O91         O  0.60642535  0.57164229  0.44283472    -0.66600
Ni92       Ni  0.57032752  0.65581857  0.55113762     1.27400
Ni93       Ni  0.57434257  0.55992554  0.56550465     1.26100
H94         H  0.55936944  0.53392985  0.50232688     0.38600
O95         O  0.40342519  0.02398220  0.53397575    -0.81400
O96         O  0.56175759  0.94248051  0.49132017    -0.66100
O97         O  0.46880485  0.97360084  0.53898353    -1.12700
C98         C  0.54107668  0.07957918  0.58761345     1.05500
O99         O  0.60702011  0.98045475  0.52220730    -0.79300
O100        O  0.57014819  0.97410013  0.58988898    -0.66900
Ni101      Ni  0.42027103  0.97782896  0.50911970     1.34900
C102        C  0.53988330  0.97150328  0.60983507     0.84200
O103        O  0.49003422  0.90814949  0.50267213    -0.79800
O104        O  0.43017920  0.93070490  0.48301209    -0.90100
C105        C  0.59729947  0.95333383  0.49937714     0.83800
O106        O  0.44183558  0.00978869  0.46862687    -0.68300
O107        O  0.56875201  0.05517137  0.59021749    -0.87600
C108        C  0.46781092  0.99829898  0.44699200     0.84600
C109        C  0.45516322  0.90332242  0.48732966     1.06200
H110        H  0.53316801  0.02774681  0.50258411     0.38000
O111        O  0.53340397  0.01076000  0.52577090    -1.10200
O112        O  0.51068972  0.99436686  0.60310779    -0.66900
Ni113      Ni  0.48956197  0.02191726  0.55547327     1.26300
O114        O  0.49600515  0.97660965  0.46045037    -0.67100
O115        O  0.50905143  0.07179107  0.56930878    -0.79400
C116        C  0.41084536  0.03351055  0.56903803     0.84000
O117        O  0.44530176  0.03120226  0.58442955    -0.66600
Ni118      Ni  0.58345612  0.01605329  0.55457736     1.27400
Ni119      Ni  0.51386090  0.95855683  0.51330881     1.26100
H120        H  0.46496453  0.95575007  0.56101515     0.38600
O121        O  0.58413528  0.31938526  0.75808910    -0.74900
O122        O  0.58201699  0.23888595  0.68317533    -0.75000
O123        O  0.58104920  0.31894194  0.67958338    -0.75000
O124        O  0.58476740  0.23955674  0.76179416    -0.75100
O125        O  0.51941477  0.23759639  0.75942069    -0.75000
O126        O  0.51558089  0.31867342  0.67951511    -0.75000
O127        O  0.51672450  0.23861063  0.68119379    -0.74900
O128        O  0.51880714  0.31684883  0.75745565    -0.75000
Ni129      Ni  0.58537927  0.27925547  0.72060799     1.25400
Ni130      Ni  0.51536612  0.27781883  0.71920982     1.25400
C131        C  0.55174259  0.33164747  0.76988934     0.87300
C132        C  0.54883928  0.22462106  0.67059306     0.87200
C133        C  0.54776833  0.33301013  0.66743792     0.87200
C134        C  0.55248466  0.22500671  0.77381370     0.87400
O135        O  0.50470310  0.96788845  0.95633365    -0.81400
O136        O  0.44393115  0.13143692  0.98208412    -0.66100
O137        O  0.47863886  0.04080062  0.93731971    -1.12700
C138        C  0.60415374  0.08217423  0.99028075     1.05500
O139        O  0.49619977  0.16844144  0.97021922    -0.79300
O140        O  0.55778866  0.13900149  0.93672669    -0.66900
Ni141      Ni  0.45411043  0.99227435  0.94944602     1.34900
C142        C  0.55045448  0.11853184  0.90711399     0.84200
O143        O  0.41082622  0.08005713  0.93256898    -0.79800
O144        O  0.40233371  0.01477907  0.93928000    -0.90100
C145        C  0.46000302  0.16460502  0.97677398     0.83800
O146        O  0.45315610  0.99752094  0.00515283    -0.68300
O147        O  0.58558669  0.10792839  0.00711391    -0.87600
C148        C  0.44367659  0.02721430  0.02334453     0.84600
C149        C  0.39155223  0.04858593  0.92522118     1.06200
H150        H  0.51171047  0.07620571  0.01086310     0.38000
O151        O  0.51231567  0.08723387  0.98459174    -1.10200
O152        O  0.53735573  0.08330692  0.90904776    -0.66900
Ni153      Ni  0.53231620  0.04753430  0.95363492     1.26300
O154        O  0.44070835  0.06069381  0.00640786    -0.67100
O155        O  0.58714010  0.05685999  0.96846322    -0.79400
C156        C  0.52951059  0.97095362  0.92986306     0.84000
O157        O  0.54611770  0.00425097  0.92309775    -0.66600
Ni158      Ni  0.53991099  0.13580446  0.98834731     1.27400
Ni159      Ni  0.46052148  0.08532890  0.96013608     1.26100
H160        H  0.47567930  0.04485377  0.90931375     0.38600
O161        O  0.75779225  0.24425020  0.93329156    -0.74900
O162        O  0.83747685  0.16821866  0.92521732    -0.75000
O163        O  0.75907117  0.16464495  0.93822032    -0.75000
O164        O  0.83586069  0.24640940  0.92109923    -0.75100
O165        O  0.85050675  0.24571439  0.98518647    -0.75000
O166        O  0.77187432  0.16757899  0.00230776    -0.75000
O167        O  0.84953699  0.16791788  0.98975665    -0.74900
O168        O  0.77300925  0.24692347  0.99708427    -0.75000
Ni169      Ni  0.79678945  0.20563465  0.92713465     1.25400
Ni170      Ni  0.81148344  0.20693314  0.99584475     1.25400
C171        C  0.75322330  0.25914820  0.96626977     0.87300
C172        C  0.85815072  0.15765379  0.95597848     0.87200
C173        C  0.75242303  0.15305854  0.97326683     0.87200
C174        C  0.85673500  0.25850838  0.95056271     0.87400
O175        O  0.27927586  0.02724598  0.69002666    -0.74900
O176        O  0.19768474  0.02390899  0.76093332    -0.75000
O177        O  0.20076614  0.02924802  0.68216737    -0.75000
O178        O  0.27559442  0.02263904  0.76936428    -0.75100
O179        O  0.27741648  0.08747158  0.77126500    -0.75000
O180        O  0.20414254  0.09446459  0.68222868    -0.75000
O181        O  0.19919968  0.08889009  0.76224442    -0.74900
O182        O  0.28317146  0.09231906  0.69185478    -0.75000
Ni183      Ni  0.23826908  0.02354870  0.72543110     1.25400
Ni184      Ni  0.24099337  0.09320785  0.72681787     1.25400
C185        C  0.29412795  0.06005455  0.67856311     0.87300
C186        C  0.18702205  0.05543047  0.77555335     0.87200
C187        C  0.19114263  0.06282425  0.66711777     0.87200
C188        C  0.28711258  0.05382870  0.78628324     0.87400
O189        O  0.10337768  0.78697268  0.22419632    -0.74900
O190        O  0.09989947  0.73078535  0.13128867    -0.75000
O191        O  0.09952442  0.80780730  0.14885924    -0.75000
O192        O  0.10317222  0.71007069  0.20740351    -0.75100
O193        O  0.03785570  0.70923751  0.20705905    -0.75000
O194        O  0.03411223  0.80576088  0.14686900    -0.75000
O195        O  0.03467850  0.72810877  0.13079951    -0.74900
O196        O  0.03795877  0.78660940  0.22278553    -0.75000
Ni197      Ni  0.10380635  0.75891828  0.17782721     1.25400
Ni198      Ni  0.03378523  0.75728886  0.17671724     1.25400
C199        C  0.07137756  0.79838196  0.23718802     0.87300
C200        C  0.06697714  0.71752503  0.11749812     0.87200
C201        C  0.06632416  0.82392495  0.14018665     0.87200
C202        C  0.07089618  0.69335201  0.21675543     0.87400
O203        O  0.34560193  0.75370323  0.49855059    -0.74900
O204        O  0.26821352  0.67150971  0.49724384    -0.75000
O205        O  0.34851578  0.67594040  0.49574101    -0.75000
O206        O  0.26539527  0.74938407  0.49962357    -0.75100
O207        O  0.25950216  0.75331357  0.43491906    -0.75000
O208        O  0.34524266  0.68188878  0.43089112    -0.75000
O209        O  0.26435458  0.67496624  0.43223374    -0.74900
O210        O  0.33995907  0.75984688  0.43371404    -0.75000
Ni211      Ni  0.30711060  0.71235338  0.50000110     1.25400
Ni212      Ni  0.30206195  0.71754120  0.43056207     1.25400
C213        C  0.35646430  0.76958102  0.46646425     0.87300
C214        C  0.25195457  0.66127117  0.46468161     0.87200
C215        C  0.36228356  0.66873000  0.46292941     0.87200
C216        C  0.24771784  0.76271294  0.46804677     0.87400
O217        O  0.79948960  0.50364159  0.20547915    -0.74900
O218        O  0.72176285  0.50593271  0.28130837    -0.75000
O219        O  0.72133015  0.50607314  0.20126028    -0.75000
O220        O  0.80052588  0.50325784  0.28483716    -0.75100
O221        O  0.80292621  0.56825832  0.28363884    -0.75000
O222        O  0.72586576  0.57111407  0.19747803    -0.75000
O223        O  0.72367069  0.57111025  0.27772683    -0.74900
O224        O  0.80450949  0.56880033  0.20429424    -0.75000
Ni225      Ni  0.76052236  0.50247429  0.24339924     1.25400
Ni226      Ni  0.76418013  0.57218961  0.24080538     1.25400
C227        C  0.81397257  0.53577604  0.19167144     0.87300
C228        C  0.71098057  0.53886156  0.29320007     0.87200
C229        C  0.71296416  0.53879142  0.18351428     0.87200
C230        C  0.81457481  0.53514092  0.29852381     0.87400
O231        O  0.00389951  0.67620926  0.43631336    -0.81400
O232        O  0.05833768  0.50226721  0.40610166    -0.66100
O233        O  0.00554095  0.59851877  0.41401351    -1.12700
C234        C  0.96132890  0.54787486  0.53113778     1.05500
O235        O  0.02201612  0.46399263  0.44435296    -0.79300
O236        O  0.95579686  0.50559236  0.43142940    -0.66900
Ni237      Ni  0.03550139  0.64530292  0.40481246     1.34900
C238        C  0.93525860  0.53615743  0.42598458     0.84200
O239        O  0.04244283  0.56322725  0.35665991    -0.79800
O240        O  0.06850413  0.62160130  0.36911843    -0.90100
C241        C  0.04759227  0.46871273  0.41911544     0.83800
O242        O  0.07147644  0.63144281  0.44747955    -0.68300
O243        O  0.95680055  0.51819564  0.51025644    -0.87600
C244        C  0.09483045  0.60315961  0.44514079     0.84600
C245        C  0.06010812  0.59449739  0.34580173     1.06200
H246        H  0.04434092  0.54237377  0.48128495     0.38000
O247        O  0.02098182  0.54147918  0.46401728    -1.10200
O248        O  0.94243978  0.56622568  0.44609785    -0.66900
Ni249      Ni  0.99207080  0.58848300  0.46651430     1.26300
O250        O  0.08430508  0.57201649  0.42769279    -0.67100
O251        O  0.98011224  0.57790525  0.51940105    -0.79400
C252        C  0.97287366  0.66921518  0.45443152     0.84000
O253        O  0.96367256  0.63532193  0.46744124    -0.66600
Ni254      Ni  0.99103790  0.49476827  0.47539950     1.27400
Ni255      Ni  0.03291471  0.55102380  0.41029599     1.26100
H256        H  0.98267960  0.59867966  0.39605713     0.38600
O257        O  0.08843438  0.99840204  0.52275597    -0.81400
O258        O  0.06041227  0.91696166  0.37494752    -0.66100
O259        O  0.11388262  0.96438459  0.45939602    -1.12700
C260        C  0.07241040  0.08198119  0.39348469     1.05500
O261        O  0.08439911  0.95816829  0.33067285    -0.79300
O262        O  0.12962474  0.01904707  0.35241514    -0.66900
Ni263      Ni  0.10359648  0.94677586  0.51071647     1.34900
C264        C  0.15604129  0.02198761  0.37968788     0.84200
O265        O  0.10644269  0.88911383  0.43509198    -0.79800
O266        O  0.12072359  0.89511764  0.49941428    -0.90100
C267        C  0.07052685  0.92477280  0.34089449     0.83800
O268        O  0.04868426  0.93241566  0.50521745    -0.68300
O269        O  0.06499319  0.06167512  0.36360281    -0.87600
C270        C  0.02553834  0.92910459  0.47526335     0.84600
C271        C  0.12276601  0.87685836  0.46773371     1.06200
H272        H  0.04329355  0.99421997  0.40764539     0.38000
O273        O  0.07063016  0.99151310  0.40247980    -1.10200
O274        O  0.14905851  0.02103527  0.41595182    -0.66900
Ni275      Ni  0.10045148  0.01646700  0.44352045     1.26300
O276        O  0.03767765  0.93147521  0.44121176    -0.67100
O277        O  0.08667583  0.06839822  0.42619258    -0.79400
C278        C  0.11322550  0.02654034  0.52187941     0.84000
O279        O  0.12692665  0.03730321  0.48925851    -0.66600
Ni280      Ni  0.07463479  0.00925823  0.34975981     1.27400
Ni281      Ni  0.08690991  0.93977003  0.41788875     1.26100
H282        H  0.14167793  0.96115802  0.45677028     0.38600
O283        O  0.90332543  0.49822539  0.03486588    -0.81400
O284        O  0.05846215  0.43210948  0.96667921    -0.66100
O285        O  0.97140194  0.45494559  0.02701968    -1.12700
C286        C  0.05107594  0.56792477  0.05381301     1.05500
O287        O  0.09481749  0.44377532  0.01935365    -0.79300
O288        O  0.08206075  0.47960450  0.08350722    -0.66900
Ni289      Ni  0.92124261  0.45965854  0.00038376     1.34900
C290        C  0.05248346  0.46637643  0.10071081     0.84200
O291        O  0.99014194  0.39388951  0.98238818    -0.79800
O292        O  0.93156036  0.41919091  0.96482740    -0.90100
C293        C  0.09214758  0.43444536  0.98415757     0.83800
O294        O  0.93994362  0.49943224  0.96516985    -0.68300
O295        O  0.08020453  0.55020489  0.04153809    -0.87600
C296        C  0.96550924  0.49325247  0.94076618     0.84600
C297        C  0.95521378  0.39062466  0.96756576     1.06200
H298        H  0.03144372  0.51146349  0.98866981     0.38000
O299        O  0.03400915  0.49289526  0.01058101    -1.10200
O300        O  0.01760808  0.47341691  0.08795552    -0.66900
Ni301      Ni  0.99416808  0.50302836  0.04442478     1.26300
O302        O  0.99184264  0.46751192  0.94759353    -0.67100
O303        O  0.01807136  0.55134335  0.06018908    -0.79400
C304        C  0.91642548  0.51047867  0.06775549     0.84000
O305        O  0.95284609  0.51175982  0.07736851    -0.66600
Ni306      Ni  0.08708583  0.49672995  0.03038988     1.27400
Ni307      Ni  0.01362318  0.44291530  0.99562082     1.26100
H308        H  0.96973205  0.43563255  0.04822330     0.38600
O309        O  0.30377791  0.05573338  0.19716209    -0.74900
O310        O  0.38719729  0.04750178  0.27686743    -0.75000
O311        O  0.38199866  0.04984772  0.19620260    -0.75000
O312        O  0.30805498  0.05319235  0.27638247    -0.75100
O313        O  0.30224828  0.98828177  0.27710617    -0.75000
O314        O  0.37599255  0.98501270  0.19670579    -0.75000
O315        O  0.38148127  0.98268775  0.27740991    -0.74900
O316        O  0.29782312  0.99077748  0.19739208    -0.75000
Ni317      Ni  0.34572661  0.05380708  0.23674470     1.25400
Ni318      Ni  0.33940673  0.98437253  0.23732159     1.25400
C319        C  0.28757621  0.02469508  0.18352542     0.87300
C320        C  0.39705539  0.01379481  0.29166471     0.87200
C321        C  0.38873848  0.01712578  0.18105073     0.87200
C322        C  0.29251613  0.02129092  0.28975519     0.87400
O323        O  0.13806979  0.02860713  0.95307012    -0.81400
O324        O  0.06943989  0.08369488  0.10999655    -0.66100
O325        O  0.08178197  0.04487980  0.00800892    -1.12700
C326        C  0.11552938  0.17917979  0.98181644     1.05500
O327        O  0.03291650  0.12774726  0.07902821    -0.79300
O328        O  0.02655018  0.15514225  0.00560380    -0.66900
Ni329      Ni  0.11738729  0.00417177  0.00012362     1.34900
C330        C  0.01756820  0.12884199  0.98176027     0.84200
O331        O  0.05994495  0.01107079  0.07903369    -0.79800
O332        O  0.09886672  0.97465768  0.04439775    -0.90100
C333        C  0.04858029  0.11410702  0.11078507     0.83800
O334        O  0.16067161  0.02434013  0.03187786    -0.68300
O335        O  0.10049420  0.18704196  0.01368086    -0.87600
C336        C  0.16003016  0.03809225  0.06566904     0.84600
C337        C  0.07545303  0.97869214  0.07154912     1.06200
H338        H  0.12125785  0.11574193  0.04734713     0.38000
O339        O  0.09448715  0.11105889  0.03788412    -1.10200
O340        O  0.04097362  0.10269372  0.97347362    -0.66900
Ni341      Ni  0.09573163  0.09503809  0.98627270     1.26300
O342        O  0.12898464  0.05062606  0.07928533    -0.67100
O343        O  0.11114423  0.14611424  0.96595897    -0.79400
C344        C  0.12251060  0.05240580  0.92719800     0.84000
O345        O  0.09740957  0.07675218  0.93561370    -0.66600
Ni346      Ni  0.06663760  0.15720282  0.04639035     1.27400
Ni347      Ni  0.07630062  0.06191981  0.05973253     1.26100
H348        H  0.05622743  0.03658300  0.99744973     0.38600
O349        O  0.09335117  0.24810906  0.23565158    -0.74900
O350        O  0.10095916  0.32699760  0.31189593    -0.75000
O351        O  0.09802803  0.24774296  0.31409694    -0.75000
O352        O  0.09559202  0.32856951  0.23324365    -0.75100
O353        O  0.03038965  0.32913251  0.23399505    -0.75000
O354        O  0.03269537  0.24825755  0.31351773    -0.75000
O355        O  0.03555619  0.32664462  0.31238635    -0.74900
O356        O  0.02816439  0.24909720  0.23533731    -0.75000
Ni357      Ni  0.09935874  0.28786648  0.27355348     1.25400
Ni358      Ni  0.02942607  0.28840049  0.27364487     1.25400
C359        C  0.05966311  0.23428698  0.22411276     0.87300
C360        C  0.06932018  0.33919405  0.32513200     0.87200
C361        C  0.06557878  0.23433112  0.32672900     0.87200
C362        C  0.06246853  0.34332287  0.22140963     0.87400
O363        O  0.33709704  0.30063489  0.93111938    -0.74900
O364        O  0.25549600  0.37590727  0.91651381    -0.75000
O365        O  0.33602889  0.37945268  0.92706628    -0.75000
O366        O  0.25702799  0.29761603  0.92112942    -0.75100
O367        O  0.25134582  0.30075772  0.98529355    -0.75000
O368        O  0.33294587  0.37814048  0.99159415    -0.75000
O369        O  0.25385546  0.37854479  0.98120804    -0.74900
O370        O  0.33087252  0.29955202  0.99539045    -0.75000
Ni371      Ni  0.29672146  0.33848655  0.92155762     1.25400
Ni372      Ni  0.29220518  0.33930482  0.99060944     1.25400
C373        C  0.34717110  0.28751564  0.96562286     0.87300
C374        C  0.24029497  0.38821019  0.94675846     0.87200
C375        C  0.34852874  0.39127028  0.96060292     0.87200
C376        C  0.23998760  0.28727902  0.95229173     0.87400
C377        C  0.17572548  0.19623311  0.94664479    -0.26800
C378        C  0.14229272  0.20881834  0.96449625    -0.14900
C379        C  0.13898450  0.24883768  0.97179143     0.35700
C380        C  0.17057424  0.27452828  0.96516159    -0.26300
C381        C  0.20531788  0.26109495  0.95085282    -0.15500
C382        C  0.20735521  0.22212678  0.93995316     0.36800
N383        N  0.24244905  0.20815927  0.92474936    -0.89800
H384        H  0.17877539  0.16560205  0.94076046     0.17900
H385        H  0.16857421  0.30484667  0.97275859     0.17900
N386        N  0.10408717  0.26324092  0.98708478    -0.88800
H387        H  0.23493486  0.19658129  0.89760366     0.35300
H388        H  0.25320489  0.18541571  0.94342741     0.40400
H389        H  0.09263388  0.28494981  0.96757533     0.40000
H390        H  0.11191830  0.27618500  0.01349893     0.34900
C391        C  0.02097390  0.19390654  0.17631477    -0.26800
C392        C  0.05660200  0.20045661  0.19792650    -0.14900
C393        C  0.08750723  0.17358012  0.19496370     0.35700
C394        C  0.08290975  0.14298196  0.16904569    -0.26300
C395        C  0.04832226  0.13848590  0.14543392    -0.15500
C396        C  0.01652046  0.16337921  0.15020461     0.36800
N397        N  0.98009547  0.15819609  0.12760206    -0.89800
H398        H  0.99666406  0.21336695  0.17893251     0.17900
H399        H  0.10754598  0.12411441  0.16563000     0.17900
N400        N  0.12396085  0.17639235  0.21764618    -0.88800
H401        H  0.95975536  0.17906120  0.13420312     0.35300
H402        H  0.96828092  0.13087775  0.13587512     0.40400
H403        H  0.11810515  0.17612867  0.24717073     0.40000
H404        H  0.13829339  0.20256686  0.20983685     0.34900
C405        C  0.21971730  0.00429994  0.09417135    -0.26800
C406        C  0.19602868  0.03752857  0.09194213    -0.14900
C407        C  0.20392334  0.06736347  0.11861841     0.35700
C408        C  0.23423191  0.06263731  0.14782453    -0.26300
C409        C  0.25670901  0.02856347  0.15133682    -0.15500
C410        C  0.24974044  0.99945832  0.12370087     0.36800
N411        N  0.27312422  0.96502801  0.12532800    -0.89800
H412        H  0.21378746  0.98112015  0.07399507     0.17900
H413        H  0.23971071  0.08538774  0.16854402     0.17900
N414        N  0.18079576  0.10218508  0.11620548    -0.88800
H415        H  0.28655522  0.96366970  0.09886027     0.35300
H416        H  0.25435597  0.94066075  0.12806167     0.40400
H417        H  0.18609805  0.11700091  0.08976309     0.40000
H418        H  0.18992010  0.12099642  0.13828470     0.34900
C419        C  0.16184272  0.45118926  0.97723883    -0.26800
C420        C  0.12871687  0.42905425  0.96460101    -0.14900
C421        C  0.13260772  0.40020152  0.93725266     0.35700
C422        C  0.17026774  0.39096996  0.92639991    -0.26300
C423        C  0.20367431  0.40981355  0.94322268    -0.15500
C424        C  0.19939461  0.44169715  0.96689058     0.36800
N425        N  0.23353139  0.46216424  0.98268547    -0.89800
H426        H  0.15869372  0.47442009  0.99726205     0.17900
H427        H  0.17361086  0.36609055  0.90842853     0.17900
N428        N  0.09906909  0.37806912  0.92314724    -0.88800
H429        H  0.22537168  0.48451482  0.00024388     0.35300
H430        H  0.24749731  0.47567588  0.95928051     0.40400
H431        H  0.10384089  0.34856366  0.93075182     0.40000
H432        H  0.09718140  0.38116701  0.89272147     0.34900
C433        C  0.02679173  0.43216201  0.15961747    -0.26800
C434        C  0.05826459  0.43943139  0.13558972    -0.14900
C435        C  0.09244998  0.41674485  0.14218911     0.35700
C436        C  0.09358362  0.38624994  0.17087482    -0.26300
C437        C  0.06113542  0.37748015  0.19319018    -0.15500
C438        C  0.02793807  0.40173143  0.18826401     0.36800
N439        N  0.99519399  0.39574774  0.21223946    -0.89800
H440        H  0.00051326  0.44953998  0.15551195     0.17900
H441        H  0.11961538  0.36850453  0.17467718     0.17900
N442        N  0.12548254  0.42318281  0.11870052    -0.88800
H443        H  0.97010251  0.39071698  0.19406145     0.35300
H444        H  0.99116869  0.42150345  0.22673881     0.40400
H445        H  0.13047655  0.39733155  0.10471998     0.40000
H446        H  0.15011309  0.42911601  0.13719888     0.34900
C447        C  0.10037223  0.14854259  0.39164724    -0.26800
C448        C  0.06698806  0.12415963  0.38816882    -0.14900
C449        C  0.03125874  0.13945423  0.37224782     0.35700
C450        C  0.03063030  0.17743600  0.35605263    -0.26300
C451        C  0.06538354  0.20009798  0.35433851    -0.15500
C452        C  0.10004021  0.18657013  0.37466990     0.36800
N453        N  0.13508707  0.21060187  0.37641758    -0.89800
H454        H  0.12757848  0.13683434  0.40476341     0.17900
H455        H  0.00337667  0.18785151  0.34185023     0.17900
N456        N  0.99553961  0.11665788  0.37108882    -0.88800
H457        H  0.15803996  0.19589249  0.39191601     0.35300
H458        H  0.12924871  0.23505504  0.39224793     0.40400
H459        H  0.99040401  0.10662931  0.39951690     0.40000
H460        H  0.99882177  0.09249347  0.35407411     0.34900
C461        C  0.24114440  0.05785164  0.32178378    -0.26800
C462        C  0.26182678  0.02297215  0.31901694    -0.14900
C463        C  0.25102974  0.99000698  0.34250446     0.35700
C464        C  0.21880900  0.99187342  0.36617782    -0.26300
C465        C  0.19659677  0.02592896  0.36672949    -0.15500
C466        C  0.20862074  0.05967433  0.34489621     0.36800
N467        N  0.18733472  0.09565403  0.34382832    -0.89800
H468        H  0.24892374  0.08357550  0.30422351     0.17900
H469        H  0.20939352  0.96561733  0.38204440     0.17900
N470        N  0.27196146  0.95418029  0.34174466    -0.88800
H471        H  0.20658202  0.11734646  0.35453024     0.35300
H472        H  0.16429712  0.09388903  0.36253210     0.40400
H473        H  0.25202217  0.93218304  0.33305501     0.40000
H474        H  0.28285154  0.94692369  0.37013661     0.34900
C475        C  0.09624075  0.40131347  0.35201921    -0.26800
C476        C  0.07103915  0.36856072  0.35517916    -0.14900
C477        C  0.04458167  0.36599269  0.38497638     0.35700
C478        C  0.04048557  0.39782620  0.40829518    -0.26300
C479        C  0.06189342  0.43289305  0.40199288    -0.15500
C480        C  0.09199710  0.43370965  0.37532830     0.36800
N481        N  0.11702149  0.46770407  0.37097534    -0.89800
H482        H  0.11748200  0.40265253  0.32974592     0.17900
H483        H  0.01822235  0.39575174  0.42954604     0.17900
N484        N  0.02088051  0.33141994  0.39084970    -0.88800
H485        H  0.13730761  0.46355503  0.34993362     0.35300
H486        H  0.13328725  0.47080839  0.39743579     0.40400
H487        H  0.99135595  0.33929744  0.38767068     0.40000
H488        H  0.02658270  0.32068464  0.41950644     0.34900
C489        C  0.85244624  0.56871504  0.35204747    -0.26800
C490        C  0.84424833  0.53410465  0.33224053    -0.14900
C491        C  0.86468531  0.49980526  0.34533218     0.35700
C492        C  0.89315838  0.50141835  0.37623574    -0.26300
C493        C  0.90219272  0.53628650  0.39541129    -0.15500
C494        C  0.88064457  0.57025921  0.38326176     0.36800
N495        N  0.88656406  0.60698915  0.40145002    -0.89800
H496        H  0.83679594  0.59520272  0.34322289     0.17900
H497        H  0.90867502  0.47483121  0.38497307     0.17900
N498        N  0.85802015  0.46288953  0.32768735    -0.88800
H499        H  0.91546062  0.61669971  0.39833287     0.35300
H500        H  0.88112302  0.60328986  0.43099068     0.40400
H501        H  0.86325932  0.46610250  0.29806238     0.40000
H502        H  0.82894265  0.45383707  0.33111692     0.34900
C503        C  0.82505135  0.51486143  0.12567202    -0.26800
C504        C  0.83961368  0.53418552  0.15873886    -0.14900
C505        C  0.87822796  0.54975315  0.15988527     0.35700
C506        C  0.90221737  0.54353692  0.12900031    -0.26300
C507        C  0.88831703  0.52235067  0.09651390    -0.15500
C508        C  0.84872939  0.50907769  0.09453548     0.36800
N509        N  0.83268957  0.48825115  0.06181878    -0.89800
H510        H  0.79511633  0.50348650  0.12428363     0.17900
H511        H  0.93230966  0.55435952  0.13104176     0.17900
N512        N  0.89435542  0.57028775  0.19273594    -0.88800
H513        H  0.80826078  0.50342083  0.04974478     0.35300
H514        H  0.82302898  0.46067718  0.07194978     0.40400
H515        H  0.89250076  0.55196207  0.21770321     0.40000
H516        H  0.87731740  0.59489366  0.19591827     0.34900
C517        C  0.16533226  0.59668985  0.43255410    -0.26800
C518        C  0.13682153  0.60945825  0.45695374    -0.14900
C519        C  0.14848104  0.63394617  0.48753265     0.35700
C520        C  0.18755781  0.64719992  0.49173761    -0.26300
C521        C  0.21512364  0.63773516  0.46494207    -0.15500
C522        C  0.20427553  0.61120713  0.43577311     0.36800
N523        N  0.23231012  0.60039049  0.40869240    -0.89800
H524        H  0.15654195  0.57783318  0.40892479     0.17900
H525        H  0.19547750  0.66766057  0.51423596     0.17900
N526        N  0.12035600  0.64675827  0.51339934    -0.88800
H527        H  0.21949866  0.58100908  0.38873472     0.35300
H528        H  0.25469105  0.58519766  0.42456530     0.40400
H529        H  0.11983676  0.67733453  0.51132504     0.40000
H530        H  0.13003102  0.63833116  0.54188114     0.34900
C531        C  0.19019152  0.79790315  0.43491364    -0.26800
C532        C  0.21291599  0.78883694  0.46955383    -0.14900
C533        C  0.20143837  0.80496797  0.50452213     0.35700
C534        C  0.16998903  0.83089599  0.50349443    -0.26300
C535        C  0.14893654  0.84197498  0.46845967    -0.15500
C536        C  0.15859737  0.82395557  0.43399622     0.36800
N537        N  0.13727668  0.83268427  0.39760141    -0.89800
H538        H  0.19732484  0.78524659  0.40790008     0.17900
H539        H  0.16323524  0.84384984  0.53047878     0.17900
N540        N  0.22160775  0.79681448  0.54160232    -0.88800
H541        H  0.12551961  0.80650372  0.38697278     0.35300
H542        H  0.15706388  0.84411099  0.37778736     0.40400
H543        H  0.25106560  0.80544296  0.54010302     0.40000
H544        H  0.21949967  0.76681305  0.54841347     0.34900
C545        C  0.09889767  0.88893276  0.13308794    -0.26800
C546        C  0.06574758  0.86504090  0.12481294    -0.14900
C547        C  0.03270575  0.88156666  0.10392068     0.35700
C548        C  0.03461054  0.92058510  0.08935593    -0.26300
C549        C  0.06872247  0.94337370  0.09597142    -0.15500
C550        C  0.10055764  0.92776755  0.11890187     0.36800
N551        N  0.13527067  0.95110595  0.12664056    -0.89800
H552        H  0.12400438  0.87737117  0.15032189     0.17900
H553        H  0.01028551  0.93234491  0.07109818     0.17900
N554        N  0.99783658  0.85856364  0.09609504    -0.88800
H555        H  0.15904140  0.93696108  0.11589279     0.35300
H556        H  0.14014785  0.95240952  0.15686825     0.40400
H557        H  0.99242971  0.85809918  0.06587074     0.40000
H558        H  0.97439128  0.87251106  0.10767073     0.34900
C559        C  0.09382392  0.62480450  0.07085799    -0.26800
C560        C  0.05606682  0.60974797  0.06173351    -0.14900
C561        C  0.02362892  0.63466576  0.06155773     0.35700
C562        C  0.02889173  0.67235531  0.07527108    -0.26300
C563        C  0.06590884  0.68548300  0.08995184    -0.15500
C564        C  0.09919785  0.66213484  0.08521527     0.36800
N565        N  0.13852846  0.67403872  0.09678940    -0.89800
H566        H  0.11926699  0.60649261  0.06957456     0.17900
H567        H  0.00321152  0.69021309  0.07713782     0.17900
N568        N  0.98514411  0.62160641  0.04833290    -0.88800
H569        H  0.14130072  0.67594092  0.12707100     0.35300
H570        H  0.14463855  0.70119883  0.08317938     0.40400
H571        H  0.97500632  0.64059832  0.02546925     0.40000
H572        H  0.96649771  0.62364134  0.07122346     0.34900
C573        C  0.03613450  0.60665737  0.27821856    -0.26800
C574        C  0.06857029  0.60275891  0.30490192    -0.14900
C575        C  0.10481453  0.62036959  0.29560167     0.35700
C576        C  0.10612774  0.64691823  0.26367345    -0.26300
C577        C  0.07170177  0.65650493  0.24113436    -0.15500
C578        C  0.03728149  0.63347736  0.24618942     0.36800
N579        N  0.00297243  0.63909619  0.22036148    -0.89800
H580        H  0.00848737  0.59248079  0.28489944     0.17900
H581        H  0.13338692  0.66270224  0.25889231     0.17900
N582        N  0.14013464  0.61349319  0.31941291    -0.88800
H583        H  0.98011057  0.62026795  0.22857376     0.35300
H584        H  0.01016554  0.63116602  0.19264945     0.40400
H585        H  0.14474055  0.58333046  0.32153393     0.40000
H586        H  0.13675567  0.62324269  0.34735858     0.34900
C587        C  0.03990156  0.83378378  0.28814081    -0.26800
C588        C  0.07286928  0.82852662  0.26646311    -0.14900
C589        C  0.10458159  0.85571126  0.26899435     0.35700
C590        C  0.10251415  0.88766211  0.29258494    -0.26300
C591        C  0.06957942  0.89291505  0.31394945    -0.15500
C592        C  0.03794302  0.86580612  0.31198685     0.36800
N593        N  0.00380476  0.87132755  0.33366775    -0.89800
H594        H  0.01530802  0.81331518  0.28589052     0.17900
H595        H  0.12710556  0.90818649  0.29463942     0.17900
N596        N  0.13843961  0.85188027  0.24673280    -0.88800
H597        H  0.98324493  0.84868724  0.32903631     0.35300
H598        H  0.99049277  0.89711371  0.32270921     0.40400
H599        H  0.16322935  0.85034965  0.26609198     0.40000
H600        H  0.14115835  0.87709314  0.22874569     0.34900
C601        C  0.14858836  0.08689474  0.82495393    -0.26800
C602        C  0.16411328  0.05278350  0.81107696    -0.14900
C603        C  0.16308645  0.01786878  0.83479557     0.35700
C604        C  0.14880333  0.01835463  0.87214808    -0.26300
C605        C  0.13503693  0.05282316  0.88663325    -0.15500
C606        C  0.13405454  0.08723919  0.86230091     0.36800
N607        N  0.12002446  0.12312759  0.87592708    -0.89800
H608        H  0.14913541  0.11394945  0.80740826     0.17900
H609        H  0.14908998  0.99157531  0.89017046     0.17900
N610        N  0.17809314  0.98203907  0.82201935    -0.88800
H611        H  0.09687080  0.13264932  0.85679846     0.35300
H612        H  0.14270379  0.14407588  0.87479078     0.40400
H613        H  0.15558569  0.96086987  0.82255863     0.40000
H614        H  0.20077641  0.97289271  0.84191507     0.34900
C615        C  0.13038301  0.04330310  0.63031982    -0.26800
C616        C  0.16603977  0.06401133  0.63080273    -0.14900
C617        C  0.18054764  0.07878301  0.59544155     0.35700
C618        C  0.16116055  0.06855632  0.55987231    -0.26300
C619        C  0.12747635  0.04409911  0.55919930    -0.15500
C620        C  0.11067610  0.03360180  0.59525545     0.36800
N621        N  0.07433591  0.01213986  0.59774876    -0.89800
H622        H  0.11882056  0.03260101  0.65756934     0.17900
H623        H  0.17380607  0.07778175  0.53273111     0.17900
N624        N  0.21649228  0.10142859  0.59575210    -0.88800
H625        H  0.07782730  0.98360640  0.58902183     0.35300
H626        H  0.05265854  0.02631599  0.57991520     0.40400
H627        H  0.21136263  0.12768949  0.60893901     0.40000
H628        H  0.22389167  0.10895172  0.56728240     0.34900
C629        C  0.92331222  0.16198080  0.93048749    -0.26800
C630        C  0.89645174  0.13998892  0.95225909    -0.14900
C631        C  0.90999250  0.10885656  0.97733403     0.35700
C632        C  0.95035304  0.10269147  0.98284202    -0.26300
C633        C  0.97730450  0.12795853  0.96477353    -0.15500
C634        C  0.96376179  0.15677897  0.93689010     0.36800
N635        N  0.99000229  0.18286221  0.91666987    -0.89800
H636        H  0.91310530  0.18619471  0.91139463     0.17900
H637        H  0.96079559  0.08035534  0.00406259     0.17900
N638        N  0.88357988  0.08418965  0.99857760    -0.88800
H639        H  0.98498896  0.17871096  0.88682811     0.35300
H640        H  0.01934066  0.17583736  0.92341181     0.40400
H641        H  0.86305468  0.07200309  0.97858191     0.40000
H642        H  0.86863670  0.10115055  0.01726384     0.34900
C643        C  0.92135694  0.28598887  0.97242398    -0.26800
C644        C  0.88849496  0.28787106  0.94581325    -0.14900
C645        C  0.88422242  0.32044126  0.91951593     0.35700
C646        C  0.90994609  0.35268256  0.92410082    -0.26300
C647        C  0.93970074  0.35269033  0.95419808    -0.15500
C648        C  0.94698039  0.31812316  0.97687081     0.36800
N649        N  0.97795803  0.31670258  0.00687627    -0.89800
H650        H  0.92557290  0.26045231  0.99188755     0.17900
H651        H  0.90484127  0.37908952  0.90611693     0.17900
N652        N  0.85194441  0.32219324  0.89072125    -0.88800
H653        H  0.99623260  0.29355822  0.00155041     0.35300
H654        H  0.96548713  0.31054077  0.03357096     0.40400
H655        H  0.85664784  0.30110345  0.87043611     0.40000
H656        H  0.85188724  0.34919532  0.87528399     0.34900
C657        C  0.41994396  0.98772955  0.08097679    -0.26800
C658        C  0.43455011  0.02337848  0.06549480    -0.14900
C659        C  0.43775421  0.05585869  0.08995420     0.35700
C660        C  0.42481130  0.05228122  0.12816784    -0.26300
C661        C  0.40843529  0.01714209  0.14309732    -0.15500
C662        C  0.40651806  0.98442281  0.11903414     0.36800
N663        N  0.38920461  0.94813369  0.13219421    -0.89800
H664        H  0.41708310  0.96260735  0.06279232     0.17900
H665        H  0.42659552  0.07764580  0.14605191     0.17900
N666        N  0.45371682  0.09267029  0.07589244    -0.88800
H667        H  0.40998606  0.92623668  0.13082661     0.35300
H668        H  0.36534915  0.94155780  0.11293075     0.40400
H669        H  0.48343157  0.08855351  0.07172008     0.40000
H670        H  0.45264078  0.11385883  0.09683145     0.34900
C671        C  0.34372024  0.01557636  0.87936518    -0.26800
C672        C  0.35774474  0.05055648  0.89561377    -0.14900
C673        C  0.34480414  0.08650978  0.87783893     0.35700
C674        C  0.32185308  0.08648664  0.84244910    -0.26300
C675        C  0.31063625  0.05146436  0.82439779    -0.15500
C676        C  0.32058650  0.01551220  0.84440114     0.36800
N677        N  0.30850233  0.97822722  0.82999240    -0.89800
H678        H  0.35257595  0.98761375  0.89269064     0.17900
H679        H  0.31316028  0.11428754  0.82867546     0.17900
N680        N  0.35579319  0.12302109  0.89505546    -0.88800
H681        H  0.32005699  0.97502799  0.80284363     0.35300
H682        H  0.27782466  0.97677747  0.82736479     0.40400
H683        H  0.34284331  0.12342957  0.92185667     0.40000
H684        H  0.34436169  0.14666173  0.87804834     0.34900
C685        C  0.40350990  0.19781621  0.00159366    -0.26800
C686        C  0.43477949  0.19905158  0.97676330    -0.14900
C687        C  0.43858218  0.23097404  0.94991359     0.35700
C688        C  0.40998403  0.26004978  0.94708933    -0.26300
C689        C  0.37797975  0.25796209  0.97104646    -0.15500
C690        C  0.37523524  0.22698369  0.99906702     0.36800
N691        N  0.34280145  0.22399484  0.02375633    -0.89800
H692        H  0.40039066  0.17345262  0.02245950     0.17900
H693        H  0.41254600  0.28407932  0.92575725     0.17900
N694        N  0.47028835  0.23308384  0.92431594    -0.88800
H695        H  0.35402147  0.22326952  0.05273220     0.35300
H696        H  0.32801845  0.19744595  0.01880643     0.40400
H697        H  0.48571909  0.25937744  0.92875744     0.40000
H698        H  0.45833958  0.23388513  0.89558919     0.34900
C699        C  0.70348308  0.12422499  0.01743506    -0.26800
C700        C  0.72009668  0.12463429  0.98094259    -0.14900
C701        C  0.70290651  0.10094429  0.95177662     0.35700
C702        C  0.66692156  0.08161061  0.95774064    -0.26300
C703        C  0.64746209  0.08624695  0.99211845    -0.15500
C704        C  0.66731868  0.10531483  0.02331201     0.36800
N705        N  0.64931612  0.10771378  0.05990541    -0.89800
H706        H  0.71712201  0.14115329  0.04063830     0.17900
H707        H  0.65236101  0.06643280  0.93375248     0.17900
N708        N  0.72106982  0.09754531  0.91558676    -0.88800
H709        H  0.66739692  0.12333589  0.07959864     0.35300
H710        H  0.64675047  0.07923731  0.07186334     0.40400
H711        H  0.70126665  0.10713019  0.89300846     0.40000
H712        H  0.72624601  0.06792206  0.91202436     0.34900
C713        C  0.58801822  0.18756916  0.82847802    -0.26800
C714        C  0.55332719  0.19361190  0.80505655    -0.14900
C715        C  0.51973033  0.17030370  0.81274551     0.35700
C716        C  0.52102107  0.14287780  0.84421622    -0.26300
C717        C  0.55490243  0.13863129  0.86890497    -0.15500
C718        C  0.58923288  0.16058876  0.86036377     0.36800
N719        N  0.62543585  0.15702355  0.88379627    -0.89800
H720        H  0.61419454  0.20487262  0.82288893     0.17900
H721        H  0.49444184  0.12668888  0.85093367     0.17900
N722        N  0.48382739  0.17488293  0.78935184    -0.88800
H723        H  0.64690898  0.14835394  0.86561496     0.35300
H724        H  0.62354903  0.13473999  0.90528260     0.40400
H725        H  0.46187877  0.18242669  0.80754057     0.40000
H726        H  0.47606532  0.14788178  0.77771055     0.34900
C727        C  0.42791401  0.04434374  0.35110555    -0.26800
C728        C  0.42405020  0.01137125  0.32779833    -0.14900
C729        C  0.44278087  0.97638274  0.34197323     0.35700
C730        C  0.46157341  0.97442971  0.37949989    -0.26300
C731        C  0.46115049  0.00605438  0.40421374    -0.15500
C732        C  0.44586824  0.04192765  0.38912371     0.36800
N733        N  0.44724120  0.07535546  0.41315579    -0.89800
H734        H  0.41464541  0.07163355  0.34071468     0.17900
H735        H  0.47351184  0.94675244  0.39064581     0.17900
N736        N  0.44244622  0.94193886  0.31967376    -0.88800
H737        H  0.43459577  0.09952686  0.39797181     0.35300
H738        H  0.47682449  0.08266009  0.41917333     0.40400
H739        H  0.45302781  0.94934149  0.29235024     0.40000
H740        H  0.41368676  0.93107733  0.31621638     0.34900
C741        C  0.44380828  0.83235404  0.50161408    -0.26800
C742        C  0.44028000  0.86457819  0.47516992    -0.14900
C743        C  0.41364423  0.86220455  0.44228495     0.35700
C744        C  0.38802561  0.82988566  0.43868273    -0.26300
C745        C  0.38832681  0.79971952  0.46753761    -0.15500
C746        C  0.41821236  0.79968976  0.49796832     0.36800
N747        N  0.42179413  0.76700431  0.52556572    -0.89800
H748        H  0.46436569  0.83392549  0.52677501     0.17900
H749        H  0.36625432  0.82964955  0.41442989     0.17900
N750        N  0.41117913  0.89371855  0.41348335    -0.88800
H751        H  0.44506087  0.77166903  0.54611345     0.35300
H752        H  0.42904632  0.74262614  0.51025312     0.40400
H753        H  0.38255631  0.90433019  0.41197207     0.40000
H754        H  0.41635588  0.88248867  0.38647662     0.34900
C755        C  0.38837519  0.06985159  0.62509030    -0.26800
C756        C  0.37890984  0.04663722  0.59282928    -0.14900
C757        C  0.34001007  0.03201394  0.58698549     0.35700
C758        C  0.31267814  0.03828058  0.61496177    -0.26300
C759        C  0.32277840  0.05967980  0.64805832    -0.15500
C760        C  0.36063140  0.07679385  0.65245848     0.36800
N761        N  0.37228802  0.09945962  0.68539187    -0.89800
H762        H  0.41793985  0.08158639  0.62981678     0.17900
H763        H  0.28336058  0.02562411  0.61137622     0.17900
N764        N  0.32888213  0.00887007  0.55403867    -0.88800
H765        H  0.36839331  0.08227469  0.71079389     0.35300
H766        H  0.35391582  0.12357032  0.68530844     0.40400
H767        H  0.32875633  0.02754625  0.52916842     0.40000
H768        H  0.30009630  0.99811538  0.55570936     0.34900
C769        C  0.51063776  0.13953422  0.61024173    -0.26800
C770        C  0.54477288  0.11767858  0.60725294    -0.14900
C771        C  0.58097043  0.13321346  0.62217182     0.35700
C772        C  0.58196584  0.16890328  0.64123504    -0.26300
C773        C  0.54746937  0.18998028  0.64547782    -0.15500
C774        C  0.51155773  0.17547510  0.62851120     0.36800
N775        N  0.47589729  0.19700291  0.62998911    -0.89800
H776        H  0.48266131  0.12848704  0.59837099     0.17900
H777        H  0.60989883  0.17962899  0.65354435     0.17900
N778        N  0.61684055  0.11312085  0.61797085    -0.88800
H779        H  0.45199804  0.18174934  0.61712034     0.35300
H780        H  0.47914687  0.22289974  0.61313022     0.40400
H781        H  0.63000525  0.10730219  0.64578852     0.40000
H782        H  0.63561159  0.13188990  0.60268410     0.34900
C783        C  0.45442238  0.61491530  0.49912175    -0.26800
C784        C  0.48107239  0.62882159  0.47200873    -0.14900
C785        C  0.46687769  0.65021673  0.43836627     0.35700
C786        C  0.42679242  0.65931711  0.43366758    -0.26300
C787        C  0.40066198  0.64857420  0.46275333    -0.15500
C788        C  0.41444750  0.62454829  0.49495760     0.36800
N789        N  0.38826127  0.61169157  0.52437286    -0.89800
H790        H  0.46543215  0.59881256  0.52521147     0.17900
H791        H  0.41684748  0.67778319  0.40879596     0.17900
N792        N  0.49292397  0.66485639  0.40976314    -0.88800
H793        H  0.40316302  0.59495208  0.54648631     0.35300
H794        H  0.36705564  0.59324051  0.51126630     0.40400
H795        H  0.50738388  0.64106978  0.39937949     0.40000
H796        H  0.51397818  0.68315072  0.42333245     0.34900
C797        C  0.64229474  0.57107850  0.36948953    -0.26800
C798        C  0.65005260  0.54284021  0.39989201    -0.14900
C799        C  0.67512168  0.51163909  0.39298307     0.35700
C800        C  0.69275124  0.51014171  0.35723550    -0.26300
C801        C  0.68656190  0.53928957  0.32769857    -0.15500
C802        C  0.66032200  0.56966128  0.33356422     0.36800
N803        N  0.65215896  0.59896509  0.30313905    -0.89800
H804        H  0.62278227  0.59487584  0.37399570     0.17900
H805        H  0.71282880  0.48663644  0.35326990     0.17900
N806        N  0.68329278  0.48136530  0.42225511    -0.88800
H807        H  0.63228972  0.61923576  0.31200999     0.35300
H808        H  0.63824145  0.58494787  0.27952411     0.40400
H809        H  0.71364203  0.48103129  0.42868122     0.40000
H810        H  0.67482903  0.45453178  0.41062439     0.34900
C811        C  0.56914028  0.40321830  0.58386311    -0.26800
C812        C  0.55707412  0.43915814  0.59779969    -0.14900
C813        C  0.53688895  0.43833053  0.63274097     0.35700
C814        C  0.53175888  0.40267613  0.65365492    -0.26300
C815        C  0.54689750  0.36785156  0.64097932    -0.15500
C816        C  0.56469606  0.36782245  0.60529591     0.36800
N817        N  0.57893965  0.33194123  0.59144725    -0.89800
H818        H  0.58349686  0.40265938  0.55662376     0.17900
H819        H  0.51785893  0.40254573  0.68122597     0.17900
N820        N  0.52269284  0.47300611  0.64867886    -0.88800
H821        H  0.59162300  0.33691269  0.56468577     0.35300
H822        H  0.55468291  0.31331856  0.58631850     0.40400
H823        H  0.50261851  0.48618630  0.62828832     0.40000
H824        H  0.54639360  0.49217612  0.65426344     0.34900
C825        C  0.66767522  0.32845403  0.94684127    -0.26800
C826        C  0.67842192  0.35878651  0.97204260    -0.14900
C827        C  0.71357073  0.35529150  0.99591482     0.35700
C828        C  0.73656305  0.32202533  0.99425921    -0.26300
C829        C  0.72610980  0.29215675  0.96866303    -0.15500
C830        C  0.69114126  0.29529958  0.94479032     0.36800
N831        N  0.67935319  0.26471416  0.91890672    -0.89800
H832        H  0.64091020  0.33071377  0.92834234     0.17900
H833        H  0.76350384  0.32001703  0.01253666     0.17900
N834        N  0.72654480  0.38455175  0.02258880    -0.88800
H835        H  0.65302752  0.27164427  0.90323055     0.35300
H836        H  0.67366890  0.23949492  0.93605853     0.40400
H837        H  0.70416826  0.38918751  0.04131783     0.40000
H838        H  0.73258596  0.41052167  0.00680107     0.34900
C839        C  0.58273143  0.41646809  0.83462149    -0.26800
C840        C  0.55089537  0.41700345  0.85862094    -0.14900
C841        C  0.51852248  0.39165556  0.85134868     0.35700
C842        C  0.51899143  0.36528218  0.82139773    -0.26300
C843        C  0.55175331  0.36279662  0.79875945    -0.15500
C844        C  0.58361944  0.38949357  0.80475016     0.36800
N845        N  0.61701532  0.38867942  0.78117762    -0.89800
H846        H  0.60799059  0.43538700  0.84077809     0.17900
H847        H  0.49414327  0.34539382  0.81711828     0.17900
N848        N  0.48563765  0.39162718  0.87548316    -0.88800
H849        H  0.63809990  0.40961797  0.78990746     0.35300
H850        H  0.60741149  0.39675263  0.75257716     0.40400
H851        H  0.48248336  0.36358307  0.88836499     0.40000
H852        H  0.46038706  0.39741642  0.85760540     0.34900
C853        C  0.66067138  0.50341141  0.09031583    -0.26800
C854        C  0.66877293  0.53439102  0.06373510    -0.14900
C855        C  0.68770032  0.56858636  0.07773411     0.35700
C856        C  0.69878483  0.57059154  0.11772320    -0.26300
C857        C  0.69229763  0.53885574  0.14408924    -0.15500
C858        C  0.67207437  0.50536761  0.13013573     0.36800
N859        N  0.66339239  0.47297806  0.15616691    -0.89800
H860        H  0.64568416  0.47724090  0.08006705     0.17900
H861        H  0.71482622  0.59622077  0.12781592     0.17900
N862        N  0.69737509  0.60039476  0.05110253    -0.88800
H863        H  0.67643751  0.44810763  0.14630322     0.35300
H864        H  0.63296668  0.46828647  0.15465975     0.40400
H865        H  0.71791529  0.59021442  0.03266548     0.40000
H866        H  0.71113929  0.62335192  0.06605673     0.34900
C867        C  0.43731481  0.45537612  0.93701423    -0.26800
C868        C  0.45822075  0.45450598  0.97345521    -0.14900
C869        C  0.44008357  0.43853874  0.00640358     0.35700
C870        C  0.40272918  0.42089215  0.00172919    -0.26300
C871        C  0.38332816  0.41804742  0.96461223    -0.15500
C872        C  0.40011467  0.43713745  0.93212939     0.36800
N873        N  0.38030839  0.43654261  0.89408806    -0.89800
H874        H  0.45137288  0.46751907  0.91163044     0.17900
H875        H  0.38996426  0.40707076  0.02705498     0.17900
N876        N  0.46057276  0.43856335  0.04416525    -0.88800
H877        H  0.35450962  0.45240606  0.89506583     0.35300
H878        H  0.39715555  0.45102837  0.87330752     0.40400
H879        H  0.44343152  0.42516302  0.06534023     0.40000
H880        H  0.46474595  0.46773000  0.05159436     0.34900
C881        C  0.92664850  0.89347974  0.51179140    -0.26800
C882        C  0.90043247  0.90426273  0.48002986    -0.14900
C883        C  0.91561927  0.92670577  0.44848971     0.35700
C884        C  0.95599054  0.93559415  0.44854041    -0.26300
C885        C  0.98244419  0.92247721  0.47910783    -0.15500
C886        C  0.96719932  0.90207012  0.51146960     0.36800
N887        N  0.99294741  0.88810132  0.54320743    -0.89800
H888        H  0.91613768  0.87606245  0.53622202     0.17900
H889        H  0.96691505  0.95221057  0.42377522     0.17900
N890        N  0.89110519  0.94089835  0.41586549    -0.88800
H891        H  0.98974460  0.85765596  0.54576004     0.35300
H892        H  0.98389579  0.89971983  0.56878830     0.40400
H893        H  0.86774697  0.95599887  0.42623809     0.40000
H894        H  0.88021494  0.91728068  0.40001799     0.34900
C895        C  0.64124180  0.89749787  0.50576828    -0.26800
C896        C  0.63064556  0.93220188  0.48511695    -0.14900
C897        C  0.65819170  0.95097821  0.46079661     0.35700
C898        C  0.69584303  0.93506560  0.45877565    -0.10300
C899        C  0.70712257  0.90168006  0.48154176    -0.15500
C900        C  0.67905060  0.88235615  0.50449575     0.36800
N901        N  0.68881140  0.84712450  0.52668997    -0.89800
H902        H  0.62086668  0.88337723  0.52518657     0.17900
H903        H  0.71676698  0.94956761  0.44024551     0.17900
N904        N  0.64937219  0.98671051  0.43876448    -0.88800
H905        H  0.66912455  0.82504073  0.51770489     0.35300
H906        H  0.68478016  0.85180604  0.55603439     0.40400
H907        H  0.62040973  0.99495035  0.44171827     0.40000
H908        H  0.65142607  0.98117135  0.40928543     0.34900
C909        C  0.67948950  0.76498787  0.45664052    -0.26800
C910        C  0.71806882  0.75459116  0.46863645    -0.14900
C911        C  0.72604291  0.71636798  0.48329758     0.35700
C912        C  0.69488748  0.68944184  0.48711411    -0.26300
C913        C  0.65604366  0.70052650  0.47759062    -0.15500
C914        C  0.64824967  0.73843604  0.46174578     0.36800
N915        N  0.60895507  0.75081290  0.45161910    -0.89800
H916        H  0.67339703  0.79452677  0.44558526     0.17900
H917        H  0.70063711  0.66042316  0.49983508     0.17900
N918        N  0.76556926  0.70564198  0.49555558    -0.88800
H919        H  0.59294398  0.74865909  0.47665158     0.35300
H920        H  0.59622232  0.73163578  0.43142429     0.40400
H921        H  0.78220874  0.70732596  0.47092709     0.40000
H922        H  0.76638747  0.67655120  0.50615887     0.34900
C923        C  0.91040903  0.75970812  0.43532860    -0.26800
C924        C  0.88588863  0.75662947  0.46673449    -0.14900
C925        C  0.89153317  0.72586372  0.49499604     0.35700
C926        C  0.92108910  0.69867432  0.49117289    -0.26300
C927        C  0.94541512  0.70137361  0.45959039    -0.15500
C928        C  0.94000731  0.73237201  0.43128551     0.36800
N929        N  0.96351167  0.73531277  0.39785484    -0.89800
H930        H  0.90626691  0.78340072  0.41363156     0.17900
H931        H  0.92450825  0.67480956  0.51275016     0.17900
N932        N  0.86649915  0.72123820  0.52696952    -0.88800
H933        H  0.95628618  0.76020502  0.38039873     0.35300
H934        H  0.95637608  0.71123696  0.38090329     0.40400
H935        H  0.88412118  0.72183680  0.55287308     0.40000
H936        H  0.85279800  0.69367572  0.52569916     0.34900
C937        C  0.56180867  0.90422113  0.85050579    -0.26800
C938        C  0.53868369  0.87041311  0.85753109    -0.14900
C939        C  0.51554229  0.86886462  0.89031588     0.35700
C940        C  0.51489998  0.90106555  0.91420671    -0.26300
C941        C  0.53641741  0.93587412  0.90630529    -0.15500
C942        C  0.56084716  0.93697192  0.87427525     0.36800
N943        N  0.58384998  0.97145719  0.86525076    -0.89800
H944        H  0.57988499  0.90553683  0.82557453     0.17900
H945        H  0.49629920  0.89899913  0.93871826     0.17900
N946        N  0.49278922  0.83472467  0.90054876    -0.88800
H947        H  0.59901867  0.96794887  0.84010073     0.35300
H948        H  0.60518392  0.97459228  0.88805803     0.40400
H949        H  0.51144659  0.81074385  0.90344790     0.40000
H950        H  0.47145181  0.82986094  0.87815702     0.34900
C951        C  0.57541489  0.68811150  0.88159158    -0.26800
C952        C  0.54251448  0.69263844  0.85560468    -0.14900
C953        C  0.51515793  0.66094370  0.85220627     0.35700
C954        C  0.52224318  0.62533699  0.87395740    -0.26300
C955        C  0.55554496  0.62090232  0.89975260    -0.15500
C956        C  0.58212101  0.65316333  0.90353869     0.36800
N957        N  0.61703540  0.65040904  0.92874866    -0.89800
H958        H  0.59676810  0.71184064  0.88453182     0.17900
H959        H  0.50167477  0.60100382  0.87075593     0.17900
N960        N  0.48117406  0.66426751  0.82560202    -0.88800
H961        H  0.61653669  0.67243301  0.94888888     0.35300
H962        H  0.64131158  0.65558596  0.91191918     0.40400
H963        H  0.46256589  0.68446197  0.83668709     0.40000
H964        H  0.46543336  0.63775241  0.82488322     0.34900
C965        C  0.57126509  0.89496194  0.68911694    -0.26800
C966        C  0.53567440  0.87515565  0.69633853    -0.14900
C967        C  0.50078379  0.88887545  0.67606616     0.35700
C968        C  0.50259392  0.92143357  0.64937087    -0.26300
C969        C  0.53846544  0.94027114  0.64154596    -0.15500
C970        C  0.57294881  0.92698115  0.66220417     0.36800
N971        N  0.60989320  0.94636193  0.65647535    -0.89800
H972        H  0.59831462  0.88569974  0.70457653     0.17900
H973        H  0.47595734  0.93123020  0.63349508     0.17900
N974        N  0.46368760  0.86953725  0.68197454    -0.88800
H975        H  0.62933566  0.92578667  0.64739851     0.35300
H976        H  0.62096205  0.95635761  0.68333697     0.40400
H977        H  0.46495224  0.84163289  0.67086353     0.40000
H978        H  0.44096182  0.88393873  0.66580787     0.34900
C979        C  0.57043593  0.64375467  0.67389706    -0.26800
C980        C  0.53812856  0.63822407  0.64738866    -0.14900
C981        C  0.50455962  0.66156198  0.65021944     0.35700
C982        C  0.50500187  0.69104731  0.67734499    -0.26300
C983        C  0.53846077  0.69876226  0.70177622    -0.15500
C984        C  0.57102084  0.67362930  0.70107715     0.36800
N985        N  0.60467905  0.67854682  0.72771619    -0.89800
H986        H  0.59612767  0.62600603  0.67212173     0.17900
H987        H  0.47927078  0.70900879  0.67826366     0.17900
N988        N  0.46941936  0.65605565  0.62595236    -0.88800
H989        H  0.62617834  0.65816343  0.72298209     0.35300
H990        H  0.59559757  0.67236221  0.75588155     0.40400
H991        H  0.46077166  0.62660230  0.62829099     0.40000
H992        H  0.47494817  0.66340373  0.59699122     0.34900
C993        C  0.92615303  0.55672489  0.85524181    -0.26800
C994        C  0.93605647  0.53395033  0.82431227    -0.14900
C995        C  0.96388141  0.50407441  0.83162371     0.35700
C996        C  0.97681956  0.49417862  0.87001902    -0.26300
C997        C  0.96180356  0.51286993  0.90150140    -0.15500
C998        C  0.93865146  0.54640253  0.89390599     0.36800
N999        N  0.92613880  0.56847104  0.92548910    -0.89800
H1000       H  0.90538500  0.58019072  0.84978095     0.17900
H1001       H  0.99597749  0.46935846  0.87521833     0.17900
N1002       N  0.97864657  0.48256723  0.80088079    -0.88800
H1003       H  0.90881455  0.59191642  0.91489952     0.35300
H1004       H  0.95129364  0.58058934  0.93945429     0.40400
H1005       H  0.98981016  0.50253370  0.78029855     0.40000
H1006       H  0.95587735  0.46630546  0.78747014     0.34900
C1007       C  0.92416246  0.57662303  0.62854183    -0.26800
C1008       C  0.91016108  0.54037779  0.64342980    -0.14900
C1009       C  0.91273684  0.50710090  0.62079254     0.35700
C1010       C  0.92940290  0.51056297  0.58456909    -0.26300
C1011       C  0.94348904  0.54669284  0.56962555    -0.15500
C1012       C  0.94055798  0.58011795  0.59197632     0.36800
N1013       N  0.95341350  0.61782184  0.57756849    -0.89800
H1014       H  0.92201161  0.60267142  0.64510443     0.17900
H1015       H  0.93119177  0.48443944  0.56804784     0.17900
N1016       N  0.89775332  0.46969076  0.63383942    -0.88800
H1017       H  0.97484492  0.62856288  0.59753935     0.35300
H1018       H  0.92948528  0.63657283  0.57651008     0.40400
H1019       H  0.92074161  0.44980392  0.63518594     0.40000
H1020       H  0.87634402  0.46039102  0.61306933     0.34900
C1021       C  0.78505145  0.49388589  0.85867033    -0.26800
C1022       C  0.78908591  0.52997233  0.83800316    -0.14900
C1023       C  0.77343013  0.56360299  0.85326105     0.35700
C1024       C  0.75129187  0.55995141  0.88622397    -0.26300
C1025       C  0.74310257  0.52317475  0.90418277    -0.15500
C1026       C  0.76228488  0.48999729  0.89127602     0.36800
N1027       N  0.75899711  0.45190446  0.90994263    -0.89800
H1028       H  0.79851996  0.46798723  0.84866380     0.17900
H1029       H  0.73806199  0.58614799  0.89583522     0.17900
N1030       N  0.77838573  0.60150505  0.83465263    -0.88800
H1031       H  0.73043732  0.44090084  0.90516929     0.35300
H1032       H  0.76567628  0.45413416  0.93984744     0.40400
H1033       H  0.79214490  0.61993126  0.85497568     0.40000
H1034       H  0.75056061  0.61257734  0.82668354     0.34900
C1035       C  0.72846772  0.56414074  0.66357377    -0.26800
C1036       C  0.75580801  0.53397361  0.66459643    -0.14900
C1037       C  0.75144660  0.50478157  0.63660220     0.35700
C1038       C  0.71953506  0.50623365  0.60871088    -0.26300
C1039       C  0.69175270  0.53605354  0.60822509    -0.15500
C1040       C  0.69649455  0.56527144  0.63600223     0.36800
N1041       N  0.66909479  0.59644613  0.63620991    -0.89800
H1042       H  0.73159949  0.58683088  0.68465787     0.17900
H1043       H  0.71600083  0.48357478  0.58763544     0.17900
N1044       N  0.77964925  0.47410354  0.63616283    -0.88800
H1045       H  0.68447938  0.62293690  0.63246236     0.35300
H1046       H  0.65746920  0.59583920  0.66368983     0.40400
H1047       H  0.80647405  0.48707358  0.62914224     0.40000
H1048       H  0.77184934  0.45477819  0.61413828     0.34900
loop_ 
_geom_bond_atom_site_label_1 
_geom_bond_atom_site_label_2 
_geom_bond_distance 
_geom_bond_site_symmetry_2 
_ccdc_geom_bond_type 
O1           Ni9   1.917       .  S
O1           C11   1.282       .  A
O2           Ni9   1.911       .  S
O2           C12   1.281       .  A
O3           Ni9   1.906       .  S
O3           C13   1.279       .  A
O4           Ni9   1.913       .  S
O4           C14   1.280       .  A
O5          Ni10   1.922       .  S
O5           C14   1.283       .  A
O6          Ni10   1.919       .  S
O6           C13   1.282       .  A
O7          Ni10   1.915       .  S
O7           C12   1.281       .  A
O8          Ni10   1.911       .  S
O8           C11   1.280       .  A
Ni9         Ni10   2.385       .  S
C11        C1022   1.487       .  S
C12        C1008   1.486       .  S
C13         C994   1.475       .  S
C14        C1036   1.483       .  S
O15         Ni23   1.924       .  S
O15          C25   1.282       .  A
O16         Ni23   1.928       .  S
O16          C26   1.282       .  A
O17         Ni23   1.926       .  S
O17          C27   1.285       .  A
O18         Ni23   1.927       .  S
O18          C28   1.284       .  A
O19         Ni24   1.934       .  S
O19          C28   1.284       .  A
O20         Ni24   1.930       .  S
O20          C27   1.282       .  A
O21         Ni24   1.934       .  S
O21          C26   1.285       .  A
O22         Ni24   1.928       .  S
O22          C25   1.284       .  A
Ni23        Ni24   2.380       .  S
C25         C983   1.496       .  S
C26         C938   1.494       .  S
C27         C952   1.497       .  S
C28         C966   1.505       .  S
O29         Ni37   1.909       .  S
O29          C39   1.280       .  A
O30         Ni37   1.922       .  S
O30          C40   1.283       .  A
O31         Ni37   1.919       .  S
O31          C41   1.283       .  A
O32         Ni37   1.908       .  S
O32          C42   1.279       .  A
O33         Ni38   1.921       .  S
O33          C42   1.283       .  A
O34         Ni38   1.926       .  S
O34          C41   1.282       .  A
O35         Ni38   1.924       .  S
O35          C40   1.282       .  A
O36         Ni38   1.919       .  S
O36          C39   1.280       .  A
Ni37        Ni38   2.387       .  S
C39         C910   1.465       .  S
C40         C882   1.499       .  S
C41         C899   1.487       .  S
C42         C924   1.479       .  S
O43         Ni49   1.911       .  S
O43          C64   1.270       .  A
O44         Ni67   1.909       .  S
O44          C53   1.268       .  A
O45         Ni49   1.878       .  S
O45         Ni67   1.877       .  S
O45         Ni61   1.900       .  S
O45          H68   0.967       .  S
C46          O63   1.279       .  A
C46          O55   1.274       .  A
C46         C868   1.476       .  S
O47         Ni66   1.932       .  S
O47          C53   1.272       .  A
O48         Ni66   1.902       .  S
O48          C50   1.269       .  A
Ni49         O52   1.932       .  S
Ni49         O54   1.907   1_556  S
C50          O60   1.280       .  A
C50         C840   1.474       .  S
O51         Ni67   1.911       .  S
O51          C57   1.280       .  A
O52          C57   1.285       .  A
C53         C826   1.489       .  S
O54          C56   1.266       .  A
O55         Ni66   1.911       .  S
C56          O62   1.270       .  A
C56         C854   1.486       .  S
C57        C1025   1.490       .  S
H58          O59   0.966   1_554  S
O59         Ni67   1.916       .  S
O59         Ni61   1.918       .  S
O59         Ni66   1.886       .  S
O60         Ni61   1.945       .  S
Ni61         O65   1.948       .  S
Ni61         O63   1.933       .  S
O62         Ni67   1.931   1_554  S
C64          O65   1.282       .  A
C64         C955   1.502       .  S
O69         Ni75   1.941       .  S
O69          C90   1.276       .  A
O70         Ni93   1.949       .  S
O70          C79   1.277       .  A
O71         Ni75   1.895       .  S
O71         Ni93   1.917       .  S
O71         Ni87   1.905       .  S
O71          H94   0.966       .  S
C72          O89   1.280       .  A
C72          O81   1.276       .  A
C72         C913   1.463       .  S
O73         Ni92   1.899       .  S
O73          C79   1.261       .  A
O74         Ni92   1.902       .  S
O74          C76   1.264       .  A
Ni75         O78   1.918       .  S
Ni75         O80   1.916       .  S
C76          O86   1.273       .  A
C76         C784   1.476       .  S
O77         Ni93   1.930       .  S
O77          C83   1.284       .  A
O78          C83   1.279       .  A
C79         C980   1.489       .  S
O80          C82   1.271       .  A
O81         Ni92   1.906       .  S
C82          O88   1.270       .  A
C82        C1039   1.485       .  S
C83         C812   1.495       .  S
H84          O85   0.966       .  S
O85         Ni93   1.922       .  S
O85         Ni87   1.890       .  S
O85         Ni92   1.892       .  S
O86         Ni87   1.944       .  S
Ni87         O91   1.914       .  S
Ni87         O89   1.931       .  S
O88         Ni93   1.923       .  S
C90          O91   1.272       .  A
C90         C798   1.500       .  S
O95        Ni101   1.939   1_545  S
O95         C116   1.272       .  A
O96        Ni119   1.938       .  S
O96         C105   1.279       .  A
O97        Ni101   1.901       .  S
O97        Ni119   1.906       .  S
O97        Ni113   1.882   1_565  S
O97         H120   0.966       .  S
C98         O115   1.258       .  A
C98         O107   1.269       .  A
C98         C770   1.493       .  S
O99        Ni118   1.904   1_565  S
O99         C105   1.267       .  A
O100       Ni118   1.906   1_565  S
O100        C102   1.272       .  A
Ni101       O104   1.923       .  S
Ni101       O106   1.907   1_565  S
C102        O112   1.282       .  A
C102        C969   1.496       .  S
O103       Ni119   1.932       .  S
O103        C109   1.283       .  A
O104        C109   1.277       .  A
C105        C896   1.478       .  S
O106        C108   1.268   1_545  A
O107       Ni118   1.944       .  S
C108        O114   1.279       .  A
C108        C731   1.488   1_565  S
C109        C742   1.478       .  S
H110        O111   0.966       .  S
O111       Ni119   1.950   1_545  S
O111       Ni113   1.913       .  S
O111       Ni118   1.932       .  S
O112       Ni113   1.961   1_565  S
Ni113       O117   1.895       .  S
Ni113       O115   1.889       .  S
O114       Ni119   1.961       .  S
C116        O117   1.263       .  A
C116        C756   1.487       .  S
O121       Ni129   1.925       .  S
O121        C131   1.283       .  A
O122       Ni129   1.925       .  S
O122        C132   1.283       .  A
O123       Ni129   1.917       .  S
O123        C133   1.282       .  A
O124       Ni129   1.921       .  S
O124        C134   1.283       .  A
O125       Ni130   1.910       .  S
O125        C134   1.280       .  A
O126       Ni130   1.912       .  S
O126        C133   1.278       .  A
O127       Ni130   1.915       .  S
O127        C132   1.282       .  A
O128       Ni130   1.911       .  S
O128        C131   1.281       .  A
Ni129      Ni130   2.385       .  S
C131        C843   1.487       .  S
C132        C773   1.494       .  S
C133        C815   1.468       .  S
C134        C714   1.486       .  S
O135       Ni141   1.929       .  S
O135        C156   1.278       .  A
O136       Ni159   1.887       .  S
O136        C145   1.262       .  A
O137       Ni141   1.886   1_545  S
O137       Ni159   1.874       .  S
O137       Ni153   1.896       .  S
O137        H160   0.967       .  S
C138        O155   1.278       .  A
C138        O147   1.273   1_556  A
C138        C703   1.479       .  S
O139       Ni158   1.937       .  S
O139        C145   1.271       .  A
O140       Ni158   1.908       .  S
O140        C142   1.270       .  A
Ni141       O144   1.947   1_565  S
Ni141       O146   1.934   1_556  S
C142        O152   1.278       .  A
C142        C717   1.471       .  S
O143       Ni159   1.902       .  S
O143        C149   1.277       .  A
O144        C149   1.286       .  A
C145        C686   1.472       .  S
O146        C148   1.272   1_565  A
O147       Ni158   1.908   1_554  S
C148        O154   1.266       .  A
C148        C658   1.500       .  S
C149        C672   1.493       .  S
H150        O151   0.965   1_554  S
O151       Ni159   1.913       .  S
O151       Ni153   1.920       .  S
O151       Ni158   1.899       .  S
O152       Ni153   1.934       .  S
Ni153       O157   1.932       .  S
Ni153       O155   1.933       .  S
O154       Ni159   1.921   1_554  S
C156        O157   1.281   1_565  A
C156        C941   1.506       .  S
O161       Ni169   1.919       .  S
O161        C171   1.282       .  A
O162       Ni169   1.912       .  S
O162        C172   1.279       .  A
O163       Ni169   1.926       .  S
O163        C173   1.284       .  A
O164       Ni169   1.924       .  S
O164        C174   1.282       .  A
O165       Ni170   1.901       .  S
O165        C174   1.279       .  A
O166       Ni170   1.904   1_554  S
O166        C173   1.279   1_554  A
O167       Ni170   1.906       .  S
O167        C172   1.279       .  A
O168       Ni170   1.917       .  S
O168        C171   1.282       .  A
Ni169      Ni170   2.388       .  S
C171        C829   1.481       .  S
C172        C630   1.464       .  S
C173        C700   1.484       .  S
C174        C644   1.474       .  S
O175       Ni183   1.906       .  S
O175        C185   1.279       .  A
O176       Ni183   1.899       .  S
O176        C186   1.277       .  A
O177       Ni183   1.910       .  S
O177        C187   1.280       .  A
O178       Ni183   1.917       .  S
O178        C188   1.281       .  A
O179       Ni184   1.918       .  S
O179        C188   1.283       .  A
O180       Ni184   1.924       .  S
O180        C187   1.281       .  A
O181       Ni184   1.928       .  S
O181        C186   1.285       .  A
O182       Ni184   1.929       .  S
O182        C185   1.283       .  A
Ni183      Ni184   2.385       .  S
C185        C759   1.475       .  S
C186        C602   1.487       .  S
C187        C616   1.472       .  S
C188        C675   1.496       .  S
O189       Ni197   1.896       .  S
O189        C199   1.277       .  A
O190       Ni197   1.899       .  S
O190        C200   1.276       .  A
O191       Ni197   1.914       .  S
O191        C201   1.283       .  A
O192       Ni197   1.920       .  S
O192        C202   1.282       .  A
O193       Ni198   1.912       .  S
O193        C202   1.281       .  A
O194       Ni198   1.913       .  S
O194        C201   1.279       .  A
O195       Ni198   1.905       .  S
O195        C200   1.281       .  A
O196       Ni198   1.907       .  S
O196        C199   1.280       .  A
Ni197      Ni198   2.386       .  S
C199        C588   1.469       .  S
C200        C563   1.477       .  S
C201        C546   1.482       .  S
C202        C577   1.484       .  S
O203       Ni211   1.912       .  S
O203        C213   1.280       .  A
O204       Ni211   1.910       .  S
O204        C214   1.279       .  A
O205       Ni211   1.917       .  S
O205        C215   1.282       .  A
O206       Ni211   1.922       .  S
O206        C216   1.281       .  A
O207       Ni212   1.933       .  S
O207        C216   1.285       .  A
O208       Ni212   1.929       .  S
O208        C215   1.283       .  A
O209       Ni212   1.926       .  S
O209        C214   1.283       .  A
O210       Ni212   1.924       .  S
O210        C213   1.283       .  A
Ni211      Ni212   2.383       .  S
C213        C745   1.484       .  S
C214        C521   1.479       .  S
C215        C787   1.491       .  S
C216        C532   1.504       .  S
O217       Ni225   1.914       .  S
O217        C227   1.281       .  A
O218       Ni225   1.919       .  S
O218        C228   1.282       .  A
O219       Ni225   1.915       .  S
O219        C229   1.281       .  A
O220       Ni225   1.915       .  S
O220        C230   1.280       .  A
O221       Ni226   1.922       .  S
O221        C230   1.284       .  A
O222       Ni226   1.924       .  S
O222        C229   1.284       .  A
O223       Ni226   1.929       .  S
O223        C228   1.283       .  A
O224       Ni226   1.924       .  S
O224        C227   1.281       .  A
Ni225      Ni226   2.384       .  S
C227        C504   1.474       .  S
C228        C801   1.489       .  S
C229        C857   1.491       .  S
C230        C490   1.493       .  S
O231       Ni237   1.931       .  S
O231        C252   1.273   1_455  A
O232       Ni255   1.909       .  S
O232        C241   1.270       .  A
O233       Ni237   1.907       .  S
O233       Ni255   1.902       .  S
O233       Ni249   1.904   1_455  S
O233        H256   0.966   1_455  S
C234        O251   1.264       .  A
C234        O243   1.270       .  A
C234       C1011   1.487       .  S
O235       Ni254   1.906   1_455  S
O235        C241   1.269       .  A
O236       Ni254   1.904       .  S
O236        C238   1.271       .  A
Ni237       O240   1.926       .  S
Ni237       O242   1.907       .  S
C238        O248   1.276       .  A
C238        C493   1.496       .  S
O239       Ni255   1.919       .  S
O239        C245   1.271       .  A
O240        C245   1.269       .  A
C241        C479   1.484       .  S
O242        C244   1.273       .  A
O243       Ni254   1.929       .  S
C244        O250   1.280       .  A
C244        C518   1.480       .  S
C245        C574   1.467       .  S
H246        O247   0.966       .  S
O247       Ni255   1.928       .  S
O247       Ni249   1.910   1_455  S
O247       Ni254   1.919   1_455  S
O248       Ni249   1.948       .  S
Ni249       O253   1.890       .  S
Ni249       O251   1.905       .  S
O250       Ni255   1.952       .  S
C252        O253   1.266       .  A
C252        C927   1.481       .  S
O257       Ni263   1.918       .  S
O257        C278   1.270   1_565  A
O258       Ni281   1.876       .  S
O258        C267   1.256       .  A
O259       Ni263   1.891       .  S
O259       Ni281   1.874       .  S
O259       Ni275   1.898   1_565  S
O259        H282   0.966       .  S
C260        O277   1.272       .  A
C260        O269   1.275       .  A
C260        C448   1.461       .  S
O261       Ni280   1.934   1_565  S
O261        C267   1.272       .  A
O262       Ni280   1.896       .  S
O262        C264   1.268       .  A
Ni263       O266   1.934       .  S
Ni263       O268   1.928       .  S
C264        O274   1.282       .  A
C264        C465   1.480       .  S
O265       Ni281   1.926       .  S
O265        C271   1.281       .  A
O266        C271   1.284       .  A
C267        C591   1.459       .  S
O268        C270   1.268       .  A
O269       Ni280   1.914       .  S
C270        O276   1.263       .  A
C270        C885   1.495   1_455  S
C271        C535   1.502       .  S
H272        O273   0.966       .  S
O273       Ni281   1.909       .  S
O273       Ni275   1.912   1_565  S
O273       Ni280   1.899   1_565  S
O274       Ni275   1.958       .  S
Ni275       O279   1.924       .  S
Ni275       O277   1.908       .  S
O276       Ni281   1.914       .  S
C278        O279   1.277       .  A
C278        C619   1.491       .  S
O283       Ni289   1.941       .  S
O283        C304   1.276       .  A
O284       Ni307   1.923       .  S
O284        C293   1.268       .  A
O285       Ni289   1.899       .  S
O285       Ni307   1.911   1_654  S
O285       Ni301   1.910       .  S
O285        H308   0.966       .  S
C286        O303   1.277       .  A
C286        O295   1.275       .  A
C286        C560   1.473       .  S
O287       Ni306   1.893       .  S
O287        C293   1.262   1_554  A
O288       Ni306   1.911       .  S
O288        C290   1.266       .  A
Ni289       O292   1.936   1_554  S
Ni289       O294   1.908   1_554  S
C290        O300   1.267       .  A
C290        C434   1.487       .  S
O291       Ni307   1.906   1_655  S
O291        C297   1.273       .  A
O292        C297   1.276       .  A
C293        C420   1.469       .  S
O294        C296   1.271       .  A
O295       Ni306   1.907       .  S
C296        O302   1.275       .  A
C296        C997   1.482       .  S
C297        C647   1.473       .  S
H298        O299   0.966   1_556  S
O299       Ni307   1.913   1_554  S
O299       Ni301   1.886   1_455  S
O299       Ni306   1.900       .  S
O300       Ni301   1.915   1_455  S
Ni301       O305   1.895       .  S
Ni301       O303   1.914   1_655  S
O302       Ni307   1.936   1_655  S
C304        O305   1.267       .  A
C304        C507   1.490       .  S
O309       Ni317   1.916       .  S
O309        C319   1.281       .  A
O310       Ni317   1.926       .  S
O310        C320   1.283       .  A
O311       Ni317   1.928       .  S
O311        C321   1.285       .  A
O312       Ni317   1.926       .  S
O312        C322   1.283       .  A
O313       Ni318   1.929       .  S
O313        C322   1.283   1_565  A
O314       Ni318   1.926       .  S
O314        C321   1.282   1_565  A
O315       Ni318   1.931       .  S
O315        C320   1.283   1_565  A
O316       Ni318   1.924       .  S
O316        C319   1.283   1_565  A
Ni317      Ni318   2.380   1_545  S
C319        C409   1.486       .  S
C320        C728   1.503       .  S
C321        C661   1.502       .  S
C322        C462   1.497       .  S
O323       Ni329   1.952   1_556  S
O323        C344   1.279       .  A
O324       Ni347   1.939       .  S
O324        C333   1.274       .  A
O325       Ni329   1.903       .  S
O325       Ni347   1.915       .  S
O325       Ni341   1.906   1_554  S
O325        H348   0.966   1_554  S
C326        O343   1.279       .  A
C326        O335   1.277   1_556  A
C326        C378   1.481       .  S
O327       Ni346   1.900       .  S
O327        C333   1.262       .  A
O328       Ni346   1.903       .  S
O328        C330   1.264   1_554  A
Ni329       O332   1.922   1_545  S
Ni329       O334   1.919       .  S
C330        O340   1.263       .  A
C330        C633   1.461   1_455  S
O331       Ni347   1.920       .  S
O331        C337   1.279   1_545  A
O332        C337   1.277       .  A
C333        C395   1.483       .  S
O334        C336   1.273       .  A
O335       Ni346   1.910       .  S
C336        O342   1.271       .  A
C336        C406   1.481       .  S
C337        C549   1.464       .  S
H338        O339   0.964       .  S
O339       Ni347   1.919       .  S
O339       Ni341   1.882   1_554  S
O339       Ni346   1.900       .  S
O340       Ni341   1.914       .  S
Ni341       O345   1.880       .  S
Ni341       O343   1.929       .  S
O342       Ni347   1.922       .  S
C344        O345   1.260       .  A
C344        C605   1.482       .  S
O349       Ni357   1.923       .  S
O349        C359   1.282       .  A
O350       Ni357   1.916       .  S
O350        C360   1.279       .  A
O351       Ni357   1.916       .  S
O351        C361   1.282       .  A
O352       Ni357   1.923       .  S
O352        C362   1.283       .  A
O353       Ni358   1.909       .  S
O353        C362   1.280       .  A
O354       Ni358   1.899       .  S
O354        C361   1.278       .  A
O355       Ni358   1.906       .  S
O355        C360   1.281       .  A
O356       Ni358   1.920       .  S
O356        C359   1.283       .  A
Ni357      Ni358   2.386       .  S
C359        C392   1.494       .  S
C360        C476   1.469       .  S
C361        C451   1.476       .  S
C362        C437   1.487       .  S
O363       Ni371   1.913       .  S
O363        C373   1.281       .  A
O364       Ni371   1.915       .  S
O364        C374   1.279       .  A
O365       Ni371   1.928       .  S
O365        C375   1.285       .  A
O366       Ni371   1.927       .  S
O366        C376   1.282       .  A
O367       Ni372   1.906       .  S
O367        C376   1.279       .  A
O368       Ni372   1.904       .  S
O368        C375   1.279       .  A
O369       Ni372   1.897       .  S
O369        C374   1.279       .  A
O370       Ni372   1.908       .  S
O370        C373   1.279       .  A
Ni371      Ni372   2.390       .  S
C373        C689   1.471       .  S
C374        C423   1.460       .  S
C375        C871   1.489       .  S
C376        C381   1.469       .  S
C377        C378   1.409       .  A
C377        C382   1.406       .  A
C377        H384   1.084       .  S
C378        C379   1.410       .  A
C379        C380   1.400       .  A
C379        N386   1.433       .  S
C380        C381   1.402       .  A
C380        H385   1.085       .  S
C381        C382   1.404       .  A
C382        N383   1.432       .  S
N383        H387   1.045       .  S
N383        H388   1.046       .  S
N386        H389   1.045       .  S
N386        H390   1.046   1_556  S
C391        C392   1.406       .  A
C391        C396   1.406       .  A
C391        H398   1.083   1_455  S
C392        C393   1.423       .  A
C393        C394   1.404       .  A
C393        N400   1.432       .  S
C394        C395   1.402       .  A
C394        H399   1.084       .  S
C395        C396   1.413       .  A
C396        N397   1.438   1_455  S
N397        H401   1.046       .  S
N397        H402   1.046       .  S
N400        H403   1.046       .  S
N400        H404   1.045       .  S
C405        C406   1.404       .  A
C405        C410   1.406   1_545  A
C405        H412   1.084   1_545  S
C406        C407   1.412       .  A
C407        C408   1.405       .  A
C407        N414   1.438       .  S
C408        C409   1.404       .  A
C408        H413   1.083       .  S
C409        C410   1.413   1_545  A
C410        N411   1.432       .  S
N411        H415   1.046       .  S
N411        H416   1.046       .  S
N414        H417   1.045       .  S
N414        H418   1.046       .  S
C419        C420   1.406       .  A
C419        C424   1.397       .  A
C419        H426   1.084       .  S
C420        C421   1.405       .  A
C421        C422   1.404       .  A
C421        N428   1.432       .  S
C422        C423   1.405       .  A
C422        H427   1.084       .  S
C423        C424   1.403       .  A
C424        N425   1.438       .  S
N425        H429   1.046   1_556  S
N425        H430   1.046       .  S
N428        H431   1.045       .  S
N428        H432   1.045       .  S
C433        C434   1.405       .  A
C433        C438   1.402       .  A
C433        H440   1.084       .  S
C434        C435   1.415       .  A
C435        C436   1.405       .  A
C435        N442   1.432       .  S
C436        C437   1.404       .  A
C436        H441   1.084       .  S
C437        C438   1.414       .  A
C438        N439   1.433   1_455  S
N439        H443   1.046       .  S
N439        H444   1.046       .  S
N442        H445   1.046       .  S
N442        H446   1.046       .  S
C447        C448   1.401       .  A
C447        C452   1.403       .  A
C447        H454   1.084       .  S
C448        C449   1.407       .  A
C449        C450   1.392       .  A
C449        N456   1.433   1_455  S
C450        C451   1.407       .  A
C450        H455   1.084       .  S
C451        C452   1.413       .  A
C452        N453   1.437       .  S
N453        H457   1.046       .  S
N453        H458   1.046       .  S
N456        H459   1.046       .  S
N456        H460   1.044       .  S
C461        C462   1.407       .  A
C461        C466   1.406       .  A
C461        H468   1.084       .  S
C462        C463   1.415   1_545  A
C463        C464   1.409       .  A
C463        N470   1.432       .  S
C464        C465   1.403   1_565  A
C464        H469   1.084       .  S
C465        C466   1.417       .  A
C466        N467   1.439       .  S
N467        H471   1.046       .  S
N467        H472   1.043       .  S
N470        H473   1.046       .  S
N470        H474   1.046       .  S
C475        C476   1.403       .  A
C475        C480   1.409       .  A
C475        H482   1.084       .  S
C476        C477   1.403       .  A
C477        C478   1.393       .  A
C477        N484   1.434       .  S
C478        C479   1.408       .  A
C478        H483   1.083       .  S
C479        C480   1.415       .  A
C480        N481   1.437       .  S
N481        H485   1.046       .  S
N481        H486   1.046       .  S
N484        H487   1.046   1_455  S
N484        H488   1.046       .  S
C489        C490   1.406       .  A
C489        C494   1.401       .  A
C489        H496   1.084       .  S
C490        C491   1.420       .  A
C491        C492   1.399       .  A
C491        N498   1.433       .  S
C492        C493   1.407       .  A
C492        H497   1.084       .  S
C493        C494   1.422       .  A
C494        N495   1.433       .  S
N495        H499   1.044       .  S
N495        H500   1.045       .  S
N498        H501   1.045       .  S
N498        H502   1.045       .  S
C503        C504   1.400       .  A
C503        C508   1.401       .  A
C503        H510   1.085       .  S
C504        C505   1.410       .  A
C505        C506   1.403       .  A
C505        N512   1.432       .  S
C506        C507   1.411       .  A
C506        H511   1.084       .  S
C507        C508   1.415       .  A
C508        N509   1.433       .  S
N509        H513   1.046       .  S
N509        H514   1.046       .  S
N512        H515   1.046       .  S
N512        H516   1.045       .  S
C517        C518   1.408       .  A
C517        C522   1.409       .  A
C517        H524   1.084       .  S
C518        C519   1.406       .  A
C519        C520   1.401       .  A
C519        N526   1.433       .  S
C520        C521   1.406       .  A
C520        H525   1.084       .  S
C521        C522   1.410       .  A
C522        N523   1.437       .  S
N523        H527   1.046       .  S
N523        H528   1.045       .  S
N526        H529   1.046       .  S
N526        H530   1.045       .  S
C531        C532   1.409       .  A
C531        C536   1.410       .  A
C531        H538   1.083       .  S
C532        C533   1.422       .  A
C533        C534   1.403       .  A
C533        N540   1.432       .  S
C534        C535   1.407       .  A
C534        H539   1.083       .  S
C535        C536   1.417       .  A
C536        N537   1.433       .  S
N537        H541   1.046       .  S
N537        H542   1.046       .  S
N540        H543   1.045       .  S
N540        H544   1.045       .  S
C545        C546   1.405       .  A
C545        C550   1.397       .  A
C545        H552   1.084       .  S
C546        C547   1.414       .  A
C547        C548   1.407       .  A
C547        N554   1.432   1_455  S
C548        C549   1.401       .  A
C548        H553   1.084       .  S
C549        C550   1.404       .  A
C550        N551   1.433       .  S
N551        H555   1.046       .  S
N551        H556   1.046       .  S
N554        H557   1.045       .  S
N554        H558   1.046       .  S
C559        C560   1.401       .  A
C559        C564   1.394       .  A
C559        H566   1.084       .  S
C560        C561   1.409       .  A
C561        C562   1.396       .  A
C561        N568   1.433   1_455  S
C562        C563   1.405       .  A
C562        H567   1.084       .  S
C563        C564   1.422       .  A
C564        N565   1.433       .  S
N565        H569   1.045       .  S
N565        H570   1.045       .  S
N568        H571   1.046       .  S
N568        H572   1.046       .  S
C573        C574   1.400       .  A
C573        C578   1.405       .  A
C573        H580   1.084       .  S
C574        C575   1.412       .  A
C575        C576   1.397       .  A
C575        N582   1.434       .  S
C576        C577   1.405       .  A
C576        H581   1.084       .  S
C577        C578   1.416       .  A
C578        N579   1.438       .  S
N579        H583   1.046   1_455  S
N579        H584   1.046       .  S
N582        H585   1.046       .  S
N582        H586   1.044       .  S
C587        C588   1.403       .  A
C587        C592   1.401       .  A
C587        H594   1.084       .  S
C588        C589   1.414       .  A
C589        C590   1.394       .  A
C589        N596   1.433       .  S
C590        C591   1.396       .  A
C590        H595   1.084       .  S
C591        C592   1.410       .  A
C592        N593   1.438       .  S
N593        H597   1.046   1_455  S
N593        H598   1.046   1_455  S
N596        H599   1.046       .  S
N596        H600   1.046       .  S
C601        C602   1.404       .  A
C601        C606   1.404       .  A
C601        H608   1.084       .  S
C602        C603   1.419       .  A
C603        C604   1.401       .  A
C603        N610   1.433   1_545  S
C604        C605   1.399       .  A
C604        H609   1.084   1_545  S
C605        C606   1.415       .  A
C606        N607   1.433       .  S
N607        H611   1.046       .  S
N607        H612   1.046       .  S
N610        H613   1.046       .  S
N610        H614   1.046       .  S
C615        C616   1.395       .  A
C615        C620   1.395       .  A
C615        H622   1.084       .  S
C616        C617   1.410       .  A
C617        C618   1.410       .  A
C617        N624   1.437       .  S
C618        C619   1.408       .  A
C618        H623   1.083       .  S
C619        C620   1.425       .  A
C620        N621   1.433       .  S
N621        H625   1.044   1_545  S
N621        H626   1.046       .  S
N624        H627   1.045       .  S
N624        H628   1.046       .  S
C629        C630   1.404       .  A
C629        C634   1.398       .  A
C629        H636   1.085       .  S
C630        C631   1.409       .  A
C631        C632   1.397       .  A
C631        N638   1.433       .  S
C632        C633   1.403       .  A
C632        H637   1.084   1_556  S
C633        C634   1.411       .  A
C634        N635   1.439       .  S
N635        H639   1.045       .  S
N635        H640   1.044   1_655  S
N638        H641   1.046       .  S
N638        H642   1.044   1_556  S
C643        C644   1.405       .  A
C643        C648   1.399       .  A
C643        H650   1.084       .  S
C644        C645   1.409       .  A
C645        C646   1.404       .  A
C645        N652   1.437       .  S
C646        C647   1.406       .  A
C646        H651   1.084       .  S
C647        C648   1.407       .  A
C648        N649   1.433   1_556  S
N649        H653   1.046       .  S
N649        H654   1.046       .  S
N652        H655   1.045       .  S
N652        H656   1.046       .  S
C657        C658   1.404   1_565  A
C657        C662   1.411       .  A
C657        H664   1.084       .  S
C658        C659   1.420       .  A
C659        C660   1.410       .  A
C659        N666   1.438       .  S
C660        C661   1.406       .  A
C660        H665   1.083       .  S
C661        C662   1.418   1_545  A
C662        N663   1.432       .  S
N663        H667   1.045       .  S
N663        H668   1.046       .  S
N666        H669   1.045       .  S
N666        H670   1.046       .  S
C671        C672   1.406       .  A
C671        C676   1.399       .  A
C671        H678   1.084   1_545  S
C672        C673   1.417       .  A
C673        C674   1.408       .  A
C673        N680   1.439       .  S
C674        C675   1.409       .  A
C674        H679   1.083       .  S
C675        C676   1.421       .  A
C676        N677   1.432   1_545  S
N677        H681   1.045       .  S
N677        H682   1.045       .  S
N680        H683   1.046       .  S
N680        H684   1.046       .  S
C685        C686   1.403   1_554  A
C685        C690   1.397   1_554  A
C685        H692   1.084       .  S
C686        C687   1.409       .  A
C687        C688   1.403       .  A
C687        N694   1.433       .  S
C688        C689   1.404       .  A
C688        H693   1.084       .  S
C689        C690   1.407       .  A
C690        N691   1.433   1_556  S
N691        H695   1.046       .  S
N691        H696   1.046       .  S
N694        H697   1.046       .  S
N694        H698   1.046       .  S
C699        C700   1.406   1_554  A
C699        C704   1.403       .  A
C699        H706   1.083       .  S
C700        C701   1.410       .  A
C701        C702   1.404       .  A
C701        N708   1.432       .  S
C702        C703   1.405       .  A
C702        H707   1.084       .  S
C703        C704   1.411   1_556  A
C704        N705   1.438       .  S
N705        H709   1.046       .  S
N705        H710   1.045       .  S
N708        H711   1.045       .  S
N708        H712   1.045       .  S
C713        C714   1.405       .  A
C713        C718   1.402       .  A
C713        H720   1.084       .  S
C714        C715   1.415       .  A
C715        C716   1.401       .  A
C715        N722   1.433       .  S
C716        C717   1.399       .  A
C716        H721   1.085       .  S
C717        C718   1.417       .  A
C718        N719   1.439       .  S
N719        H723   1.045       .  S
N719        H724   1.043       .  S
N722        H725   1.046       .  S
N722        H726   1.045       .  S
C727        C728   1.411       .  A
C727        C732   1.411       .  A
C727        H734   1.083       .  S
C728        C729   1.422   1_545  A
C729        C730   1.406       .  A
C729        N736   1.432       .  S
C730        C731   1.404   1_565  A
C730        H735   1.084       .  S
C731        C732   1.409       .  A
C732        N733   1.437       .  S
N733        H737   1.046       .  S
N733        H738   1.046       .  S
N736        H739   1.045       .  S
N736        H740   1.044       .  S
C741        C742   1.401       .  A
C741        C746   1.410       .  A
C741        H748   1.084       .  S
C742        C743   1.412       .  A
C743        C744   1.401       .  A
C743        N750   1.433       .  S
C744        C745   1.401       .  A
C744        H749   1.084       .  S
C745        C746   1.417       .  A
C746        N747   1.438       .  S
N747        H751   1.046       .  S
N747        H752   1.046       .  S
N750        H753   1.046       .  S
N750        H754   1.045       .  S
C755        C756   1.410       .  A
C755        C760   1.403       .  A
C755        H762   1.084       .  S
C756        C757   1.415       .  A
C757        C758   1.404       .  A
C757        N764   1.438       .  S
C758        C759   1.402       .  A
C758        H763   1.084       .  S
C759        C760   1.410       .  A
C760        N761   1.432       .  S
N761        H765   1.046       .  S
N761        H766   1.045       .  S
N764        H767   1.045       .  S
N764        H768   1.046   1_545  S
C769        C770   1.407       .  A
C769        C774   1.403       .  A
C769        H776   1.083       .  S
C770        C771   1.412       .  A
C771        C772   1.409       .  A
C771        N778   1.432       .  S
C772        C773   1.410       .  A
C772        H777   1.083       .  S
C773        C774   1.416       .  A
C774        N775   1.438       .  S
N775        H779   1.046       .  S
N775        H780   1.046       .  S
N778        H781   1.045       .  S
N778        H782   1.046       .  S
C783        C784   1.402       .  A
C783        C788   1.406       .  A
C783        H790   1.084       .  S
C784        C785   1.409       .  A
C785        C786   1.406       .  A
C785        N792   1.432       .  S
C786        C787   1.411       .  A
C786        H791   1.084       .  S
C787        C788   1.414       .  A
C788        N789   1.438       .  S
N789        H793   1.046       .  S
N789        H794   1.045       .  S
N792        H795   1.046       .  S
N792        H796   1.046       .  S
C797        C798   1.410       .  A
C797        C802   1.415       .  A
C797        H804   1.083       .  S
C798        C799   1.417       .  A
C799        C800   1.403       .  A
C799        N806   1.433       .  S
C800        C801   1.403       .  A
C800        H805   1.084       .  S
C801        C802   1.413       .  A
C802        N803   1.437       .  S
N803        H807   1.046       .  S
N803        H808   1.046       .  S
N806        H809   1.046       .  S
N806        H810   1.046       .  S
C811        C812   1.415       .  A
C811        C816   1.401       .  A
C811        H818   1.083       .  S
C812        C813   1.418       .  A
C813        C814   1.403       .  A
C813        N820   1.432       .  S
C814        C815   1.403       .  A
C814        H819   1.084       .  S
C815        C816   1.400       .  A
C816        N817   1.438       .  S
N817        H821   1.046       .  S
N817        H822   1.046       .  S
N820        H823   1.045       .  S
N820        H824   1.045       .  S
C825        C826   1.409       .  A
C825        C830   1.407       .  A
C825        H832   1.084       .  S
C826        C827   1.417       .  A
C827        C828   1.399       .  A
C827        N834   1.432   1_556  S
C828        C829   1.404       .  A
C828        H833   1.084   1_556  S
C829        C830   1.411       .  A
C830        N831   1.438       .  S
N831        H835   1.046       .  S
N831        H836   1.046       .  S
N834        H837   1.045       .  S
N834        H838   1.045       .  S
C839        C840   1.403       .  A
C839        C844   1.411       .  A
C839        H846   1.084       .  S
C840        C841   1.408       .  A
C841        C842   1.398       .  A
C841        N848   1.434       .  S
C842        C843   1.404       .  A
C842        H847   1.084       .  S
C843        C844   1.417       .  A
C844        N845   1.437       .  S
N845        H849   1.046       .  S
N845        H850   1.046       .  S
N848        H851   1.046       .  S
N848        H852   1.045       .  S
C853        C854   1.404       .  A
C853        C858   1.405       .  A
C853        H860   1.084       .  S
C854        C855   1.414       .  A
C855        C856   1.409       .  A
C855        N862   1.438       .  S
C856        C857   1.407       .  A
C856        H861   1.083       .  S
C857        C858   1.413       .  A
C858        N859   1.432       .  S
N859        H863   1.046       .  S
N859        H864   1.046       .  S
N862        H865   1.046       .  S
N862        H866   1.046       .  S
C867        C868   1.404       .  A
C867        C872   1.407       .  A
C867        H874   1.084       .  S
C868        C869   1.408   1_556  A
C869        C870   1.403       .  A
C869        N876   1.438       .  S
C870        C871   1.409   1_554  A
C870        H875   1.083       .  S
C871        C872   1.414       .  A
C872        N873   1.437       .  S
N873        H877   1.046       .  S
N873        H878   1.046       .  S
N876        H879   1.046       .  S
N876        H880   1.045       .  S
C881        C882   1.412       .  A
C881        C886   1.409       .  A
C881        H888   1.083       .  S
C882        C883   1.419       .  A
C883        C884   1.404       .  A
C883        N890   1.433       .  S
C884        C885   1.409       .  A
C884        H889   1.084       .  S
C885        C886   1.409       .  A
C886        N887   1.432       .  S
N887        H891   1.046       .  S
N887        H892   1.045       .  S
N890        H893   1.046       .  S
N890        H894   1.044       .  S
C895        C896   1.400       .  A
C895        C900   1.403       .  A
C895        H902   1.085       .  S
C896        C897   1.421       .  A
C897        C898   1.411       .  A
C897        N904   1.438       .  S
C898        C899   1.404       .  A
C898        H903   1.084       .  S
C899        C900   1.413       .  A
C900        N901   1.433       .  S
N901        H905   1.045       .  S
N901        H906   1.046       .  S
N904        H907   1.044       .  S
N904        H908   1.046       .  S
C909        C910   1.403       .  A
C909        C914   1.401       .  A
C909        H916   1.084       .  S
C910        C911   1.407       .  A
C911        C912   1.401       .  A
C911        N918   1.438       .  S
C912        C913   1.401       .  A
C912        H917   1.084       .  S
C913        C914   1.409       .  A
C914        N915   1.432       .  S
N915        H919   1.045       .  S
N915        H920   1.046       .  S
N918        H921   1.046       .  S
N918        H922   1.046       .  S
C923        C924   1.403       .  A
C923        C928   1.406       .  A
C923        H930   1.084       .  S
C924        C925   1.410       .  A
C925        C926   1.400       .  A
C925        N932   1.433       .  S
C926        C927   1.404       .  A
C926        H931   1.083       .  S
C927        C928   1.416       .  A
C928        N929   1.438       .  S
N929        H933   1.046       .  S
N929        H934   1.046       .  S
N932        H935   1.046       .  S
N932        H936   1.046       .  S
C937        C938   1.408       .  A
C937        C942   1.416       .  A
C937        H944   1.084       .  S
C938        C939   1.412       .  A
C939        C940   1.403       .  A
C939        N946   1.433       .  S
C940        C941   1.412       .  A
C940        H945   1.083       .  S
C941        C942   1.418       .  A
C942        N943   1.437       .  S
N943        H947   1.046       .  S
N943        H948   1.046       .  S
N946        H949   1.046       .  S
N946        H950   1.044       .  S
C951        C952   1.400       .  A
C951        C956   1.402       .  A
C951        H958   1.084       .  S
C952        C953   1.421       .  A
C953        C954   1.419       .  A
C953        N960   1.437       .  S
C954        C955   1.406       .  A
C954        H959   1.083       .  S
C955        C956   1.420       .  A
C956        N957   1.433       .  S
N957        H961   1.046       .  S
N957        H962   1.046       .  S
N960        H963   1.045       .  S
N960        H964   1.046       .  S
C965        C966   1.408       .  A
C965        C970   1.406       .  A
C965        H972   1.083       .  S
C966        C967   1.421       .  A
C967        C968   1.416       .  A
C967        N974   1.437       .  S
C968        C969   1.406       .  A
C968        H973   1.083       .  S
C969        C970   1.411       .  A
C970        N971   1.432       .  S
N971        H975   1.046       .  S
N971        H976   1.046       .  S
N974        H977   1.046       .  S
N974        H978   1.046       .  S
C979        C980   1.403       .  A
C979        C984   1.413       .  A
C979        H986   1.082       .  S
C980        C981   1.419       .  A
C981        C982   1.402       .  A
C981        N988   1.434       .  S
C982        C983   1.404       .  A
C982        H987   1.084       .  S
C983        C984   1.419       .  A
C984        N985   1.438       .  S
N985        H989   1.046       .  S
N985        H990   1.046       .  S
N988        H991   1.046       .  S
N988        H992   1.044       .  S
C993        C994   1.405       .  A
C993        C998   1.405       .  A
C993       H1000   1.084       .  S
C994        C995   1.413       .  A
C995        C996   1.397       .  A
C995       N1002   1.433       .  S
C996        C997   1.407       .  A
C996       H1001   1.084       .  S
C997        C998   1.412       .  A
C998        N999   1.438       .  S
N999       H1003   1.046       .  S
N999       H1004   1.046       .  S
N1002      H1005   1.045       .  S
N1002      H1006   1.043       .  S
C1007      C1008   1.407       .  A
C1007      C1012   1.405       .  A
C1007      H1014   1.084       .  S
C1008      C1009   1.413       .  A
C1009      C1010   1.399       .  A
C1009      N1016   1.433       .  S
C1010      C1011   1.405       .  A
C1010      H1015   1.084       .  S
C1011      C1012   1.413       .  A
C1012      N1013   1.432       .  S
N1013      H1017   1.045       .  S
N1013      H1018   1.046       .  S
N1016      H1019   1.046       .  S
N1016      H1020   1.046       .  S
C1021      C1022   1.407       .  A
C1021      C1026   1.401       .  A
C1021      H1028   1.084       .  S
C1022      C1023   1.411       .  A
C1023      C1024   1.398       .  A
C1023      N1030   1.433       .  S
C1024      C1025   1.408       .  A
C1024      H1029   1.083       .  S
C1025      C1026   1.421       .  A
C1026      N1027   1.433       .  S
N1027      H1031   1.044       .  S
N1027      H1032   1.046       .  S
N1030      H1033   1.046       .  S
N1030      H1034   1.046       .  S
C1035      C1036   1.402       .  A
C1035      C1040   1.402       .  A
C1035      H1042   1.084       .  S
C1036      C1037   1.416       .  A
C1037      C1038   1.408       .  A
C1037      N1044   1.438       .  S
C1038      C1039   1.404       .  A
C1038      H1043   1.084       .  S
C1039      C1040   1.412       .  A
C1040      N1041   1.432       .  S
N1041      H1045   1.045       .  S
N1041      H1046   1.045       .  S
N1044      H1047   1.046       .  S
N1044      H1048   1.046       .  S
