geometry optimzed in LAMMPS
_audit_creation_date              2020-11-30 
_audit_creation_method            'lammps2cif' 
_symmetry_space_group_name_H-M    'P1' 
_symmetry_Int_Tables_number       1 
_symmetry_cell_setting            triclinic 
loop_ 
_symmetry_equiv_pos_as_xyz 
  x,y,z 
_cell_length_a                    34.07219086 
_cell_length_b                    33.837351834113925 
_cell_length_c                    26.334287233351294 
_cell_angle_alpha                 89.83352818916184 
_cell_angle_beta                  89.92148877366294 
_cell_angle_gamma                 90.0137481519354 
loop_ 
_atom_site_label 
_atom_site_type_symbol 
_atom_site_fract_x 
_atom_site_fract_y 
_atom_site_fract_z 
_atom_site_charge 
C1          C  0.44554223  0.15607483  0.99707686     0.03900
C2          C  0.47351930  0.18643325  0.99516903    -0.12200
C3          C  0.46193112  0.22603987  0.99150390     0.01400
C4          C  0.42215926  0.23521945  0.98946372    -0.10700
C5          C  0.39349067  0.20567614  0.99282693     0.03900
C6          C  0.40517838  0.16571902  0.99639987    -0.10200
H7          H  0.01405537  0.16362615  0.99009985     0.09500
H8          H  0.41343103  0.26599514  0.98686205     0.07000
H9          H  0.38328689  0.14254025  0.99831772     0.06900
C10         C  0.44949839  0.15145903  0.49026985     0.03900
C11         C  0.47648614  0.18289295  0.48580428    -0.12200
C12         C  0.46346668  0.22230843  0.48475803     0.01400
C13         C  0.42355530  0.23019298  0.48715183    -0.10700
C14         C  0.39616301  0.19970062  0.49170440     0.03900
C15         C  0.40896355  0.16007586  0.49320406    -0.10200
H16         H  0.01234040  0.16422097  0.49498333     0.09500
H17         H  0.41364616  0.26066985  0.48581418     0.07000
H18         H  0.38773513  0.13637422  0.49661349     0.06900
C19         C  0.36758506  0.44870053  0.01023035     0.03900
C20         C  0.34139864  0.47980674  0.01823770    -0.12200
C21         C  0.30130269  0.47303376  0.02118339     0.01400
C22         C  0.28701805  0.43424506  0.01793353    -0.10700
C23         C  0.31278667  0.40246465  0.00976963     0.03900
C24         C  0.35345682  0.40977703  0.00594511    -0.10200
H25         H  0.33642506  0.01133562  0.98803229     0.09500
H26         H  0.25578540  0.42874100  0.02110438     0.07000
H27         H  0.37373297  0.38565940  0.99939341     0.06900
C28         C  0.36259327  0.45008978  0.49618225     0.03900
C29         C  0.33145092  0.47769465  0.49744990    -0.12200
C30         C  0.29219511  0.46510008  0.49268819     0.01400
C31         C  0.28408971  0.42518671  0.48736650    -0.10700
C32         C  0.31377204  0.39684149  0.48891235     0.03900
C33         C  0.35337872  0.40922438  0.49279934    -0.10200
H34         H  0.35075581  0.01173006  0.48278311     0.09500
H35         H  0.25366352  0.41592637  0.48449175     0.07000
H36         H  0.37663872  0.38741882  0.49333880     0.06900
Zn37       Zn  0.04938973  0.49702035  0.96016120     1.49700
Zn38       Zn  0.03014700  0.04737777  0.03971112     1.49400
Zn39       Zn  0.45988484  0.03217093  0.95414314     1.49100
Zn40       Zn  0.49191404  0.45767205  0.04347664     1.49500
O41         O  0.01104880  0.00243471  0.99979590    -1.83300
O42         O  0.10258647  0.01788129  0.96465524    -0.74000
O43         O  0.48960514  0.10689500  0.02588952    -0.73800
O44         O  0.47444349  0.02702139  0.87967652    -0.73300
O45         O  0.08632880  0.06364982  0.02108435    -0.74000
O46         O  0.03555973  0.50285681  0.88649916    -0.73600
O47         O  0.44478605  0.08917021  0.96897100    -0.74200
O48         O  0.43487689  0.44299853  0.03263765    -0.73500
O49         O  0.02730850  0.03398998  0.11446321    -0.74300
O50         O  0.41713937  0.48798715  0.97526498    -0.73700
O51         O  0.49850488  0.47219582  0.11741161    -0.74200
O52         O  0.02265095  0.42392205  0.03397205    -0.74100
O53         O  0.06471602  0.43987007  0.97286459    -0.73900
C54         C  0.11118966  0.04833803  0.99071932     0.77900
C55         C  0.46005624  0.11494495  0.99804684     0.78400
C56         C  0.00692059  0.00054565  0.86066010     0.77400
C57         C  0.40901337  0.45934557  0.00482480     0.77800
C58         C  0.01491259  0.00388378  0.13898010     0.78900
C59         C  0.05026283  0.41485045  0.00378568     0.77900
Zn60       Zn  0.05123398  0.49169033  0.54716285     1.49700
Zn61       Zn  0.46409886  0.02708187  0.53647702     1.49400
Zn62       Zn  0.02612767  0.04994758  0.45660699     1.49100
Zn63       Zn  0.48907636  0.46164999  0.45831414     1.49500
O64         O  0.00802783  0.00697252  0.49982899    -1.83300
O65         O  0.03579946  0.49839880  0.62048495    -0.74000
O66         O  0.44846368  0.08436511  0.52011249    -0.73800
O67         O  0.08152910  0.06688892  0.47277226    -0.73300
O68         O  0.47665721  0.02329763  0.61144212    -0.74000
O69         O  0.09607905  0.02432937  0.53428979    -0.73600
O70         O  0.49480039  0.10195065  0.46532171    -0.74200
O71         O  0.49626108  0.47631743  0.38443534    -0.73500
O72         O  0.41224633  0.49499437  0.52463077    -0.74300
O73         O  0.02383941  0.03650120  0.38228515    -0.73700
O74         O  0.43060890  0.44800831  0.47102965    -0.74200
O75         O  0.02263383  0.41761225  0.47551963    -0.74100
O76         O  0.06609260  0.43506321  0.53446215    -0.73900
C77         C  0.00489238  0.00455661  0.64120384     0.77900
C78         C  0.46462750  0.11029767  0.49173213     0.78400
C79         C  0.10547410  0.05248721  0.50482296     0.77400
C80         C  0.01252249  0.00583122  0.35860045     0.77800
C81         C  0.40408520  0.46476122  0.49770346     0.78900
C82         C  0.05148046  0.40959607  0.50460839     0.77900
C83         C  0.06220961  0.37322362  0.00214399     0.03900
C84         C  0.03224167  0.34501038  0.00395538    -0.12200
C85         C  0.04053433  0.30486728  0.00086678     0.01400
C86         C  0.07975035  0.29252916  0.99729198    -0.10700
C87         C  0.11040497  0.32031116  0.99686482     0.03900
C88         C  0.10156635  0.36096877  0.99879943    -0.10200
H89         H  0.00187225  0.35447521  0.00658186     0.09500
H90         H  0.08679326  0.26133246  0.99709309     0.07000
H91         H  0.12493764  0.38268401  0.99811689     0.06900
C92         C  0.06424186  0.36834482  0.50799038     0.03900
C93         C  0.03474100  0.34085927  0.51758041    -0.12200
C94         C  0.04317056  0.30096268  0.52090726     0.01400
C95         C  0.08214041  0.28798523  0.51605677    -0.10700
C96         C  0.11275987  0.31506210  0.50672056     0.03900
C97         C  0.10358702  0.35574812  0.50265158    -0.10200
H98         H  0.00453953  0.35063156  0.52160994     0.09500
H99         H  0.08858325  0.25671711  0.51921285     0.07000
H100        H  0.12657017  0.37720550  0.49562113     0.06900
C101        C  0.19816166  0.11973259  0.98772133     0.03900
C102        C  0.22877485  0.09316709  0.97909919    -0.12200
C103        C  0.22168075  0.05295220  0.97467303     0.01400
C104        C  0.18293375  0.03887642  0.97739624    -0.10700
C105        C  0.15144752  0.06490872  0.98636577     0.03900
C106        C  0.15923752  0.10576927  0.99146864    -0.10200
H107        H  0.25874607  0.10391495  0.97661716     0.09500
H108        H  0.17727266  0.00755024  0.97324845     0.07000
H109        H  0.13547304  0.12633347  0.99837203     0.06900
C110        C  0.14659610  0.06452193  0.50476896     0.03900
C111        C  0.15891506  0.10398018  0.50082206    -0.12200
C112        C  0.19930541  0.11262174  0.49906811     0.01400
C113        C  0.22675673  0.08155072  0.49966626    -0.10700
C114        C  0.21405688  0.04223063  0.50418143     0.03900
C115        C  0.17428548  0.03422328  0.50761318    -0.10200
H116        H  0.13744475  0.12757394  0.49931531     0.09500
H117        H  0.25786041  0.08816729  0.49864474     0.07000
H118        H  0.16471087  0.00368908  0.51054043     0.06900
Zn119      Zn  0.29533687  0.28175332  0.95484903     1.49700
Zn120      Zn  0.27027177  0.21729682  0.03699498     1.49400
Zn121      Zn  0.23302198  0.30492363  0.04024852     1.49100
Zn122      Zn  0.20790726  0.24506911  0.95311128     1.49500
O123        O  0.25163286  0.26223712  0.99626958    -1.83300
O124        O  0.34304374  0.24853359  0.96615748    -0.74000
O125        O  0.26493430  0.22903616  0.11169371    -0.73800
O126        O  0.26646863  0.35334363  0.03194654    -0.73300
O127        O  0.32713115  0.20221662  0.02234411    -0.74000
O128        O  0.31099013  0.33791212  0.97354504    -0.73600
O129        O  0.23648777  0.28814785  0.11368302    -0.74200
O130        O  0.15929355  0.27671589  0.96701173    -0.73500
O131        O  0.23806905  0.16954789  0.02167403    -0.74300
O132        O  0.17671075  0.32074359  0.02523613    -0.73700
O133        O  0.19344036  0.18755115  0.96458677    -0.74200
O134        O  0.22254591  0.25184513  0.87912357    -0.74100
O135        O  0.28225998  0.27840050  0.88006804    -0.73900
C136        C  0.35210669  0.21865749  0.99316310     0.77900
C137        C  0.25037348  0.25789683  0.13635482     0.78400
C138        C  0.29623468  0.36230959  0.00500188     0.77400
C139        C  0.15113797  0.30569795  0.99584427     0.77800
C140        C  0.20931303  0.16146233  0.99270484     0.78900
C141        C  0.25263062  0.26524486  0.85586304     0.77900
Zn142      Zn  0.23496969  0.29918261  0.45426319     1.49700
Zn143      Zn  0.21165958  0.23711108  0.53920545     1.49400
Zn144      Zn  0.27258619  0.21109373  0.45324514     1.49100
Zn145      Zn  0.29920980  0.27388020  0.53677683     1.49500
O146        O  0.25464353  0.25535948  0.49580775    -1.83300
O147        O  0.17857860  0.31609972  0.47306061    -0.74000
O148        O  0.19824046  0.17951980  0.52638877    -0.73800
O149        O  0.26548760  0.22483722  0.37927102    -0.73300
O150        O  0.16251684  0.26898213  0.52801562    -0.74000
O151        O  0.23682460  0.28393452  0.38017206    -0.73600
O152        O  0.24199608  0.16192250  0.46796865    -0.74200
O153        O  0.34619361  0.24010923  0.52411737    -0.73500
O154        O  0.22629035  0.24428371  0.61283510    -0.74300
O155        O  0.32959678  0.19662836  0.46483386    -0.73700
O156        O  0.28581691  0.27127038  0.61164912    -0.74200
O157        O  0.31619386  0.33016966  0.51933663    -0.74100
O158        O  0.27028917  0.34633816  0.46320098    -0.73900
C159        C  0.15355387  0.29965955  0.50242182     0.77900
C160        C  0.21353562  0.15364882  0.49739921     0.78400
C161        C  0.25047483  0.25429617  0.35607343     0.77400
C162        C  0.35478936  0.21164486  0.49465866     0.77800
C163        C  0.25589397  0.25864010  0.63593339     0.78900
C164        C  0.30051677  0.35515485  0.48939688     0.77900
C165        C  0.28813804  0.27313475  0.77268930    -0.12500
C166        C  0.25336422  0.26478877  0.79952610     0.09600
C167        C  0.21947035  0.25484870  0.77201415    -0.12500
C168        C  0.22036664  0.25294275  0.71902727    -0.12500
C169        C  0.25518341  0.26091782  0.69217228     0.09600
C170        C  0.28903185  0.27123987  0.71959781    -0.12500
H171        H  0.31482462  0.28069782  0.79272490     0.13600
H172        H  0.19216873  0.24838248  0.79143753     0.13600
H173        H  0.19367844  0.24521490  0.69909672     0.13600
H174        H  0.31633127  0.27753961  0.70007851     0.13600
C175        C  0.22907413  0.28502852  0.22041357    -0.12500
C176        C  0.24965897  0.25634845  0.19254861     0.09600
C177        C  0.26977117  0.22640387  0.21892517    -0.12500
C178        C  0.26963747  0.22543095  0.27199527    -0.11300
C179        C  0.24940509  0.25439395  0.29985496     0.09600
C180        C  0.22893593  0.28405369  0.27344732    -0.12500
H181        H  0.21308532  0.30834946  0.20125097     0.13600
H182        H  0.28598777  0.20391787  0.19858772     0.13600
H183        H  0.28581996  0.20225790  0.29118337     0.13600
H184        H  0.21290972  0.30669016  0.29375750     0.13600
C185        C  0.47413637  0.03002276  0.77193698    -0.12500
C186        C  0.00562078  0.00048648  0.80451418     0.09600
C187        C  0.03682769  0.98449818  0.77641054    -0.12500
C188        C  0.03631520  0.98557587  0.72346379    -0.12500
C189        C  0.00458266  0.00266479  0.69732704     0.09600
C190        C  0.47444617  0.02900886  0.71881259    -0.12500
H191        H  0.45007552  0.04473451  0.79100861     0.13600
H192        H  0.06633200  0.49745780  0.79979173     0.13600
H193        H  0.06622317  0.49537442  0.70747806     0.13600
H194        H  0.45062684  0.04300042  0.69836668     0.13600
C195        C  0.02720433  0.03835016  0.27494942    -0.12500
C196        C  0.01418081  0.00515279  0.30244150     0.09600
C197        C  0.49804188  0.47142038  0.27775990    -0.12500
C198        C  0.49845089  0.47052921  0.22470199    -0.12500
C199        C  0.01562449  0.00413938  0.19518171     0.09600
C200        C  0.02792941  0.03784530  0.22187348    -0.12500
H201        H  0.03656363  0.06487255  0.29440676     0.13600
H202        H  0.48697981  0.44587977  0.29811054     0.13600
H203        H  0.48763152  0.44438238  0.20567421     0.13600
H204        H  0.03775570  0.06401279  0.20177917     0.13600
C205        C  0.25809311  0.49211761  0.49176974    -0.15600
C206        C  0.24101754  0.00833900  0.50639768    -0.30800
H207        H  0.23293595  0.48363685  0.46886879     0.13400
H208        H  0.23226482  0.98290787  0.52906298     0.14000
C209        C  0.25595125  0.02658114  0.96952056    -0.15600
C210        C  0.27526427  0.50755193  0.02573734    -0.30800
H211        H  0.28160111  0.03758794  0.94944525     0.13400
H212        H  0.28588691  0.53310698  0.04646725     0.14000
C213        C  0.49040438  0.25640955  0.48124031    -0.15600
C214        C  0.00988674  0.27370602  0.52692496    -0.30800
H215        H  0.48066283  0.28226927  0.46023091     0.13400
H216        H  0.98519165  0.28269057  0.55036273     0.14000
C217        C  0.49038968  0.25881727  0.98858638    -0.15600
C218        C  0.00724650  0.27700591  0.00358598    -0.30800
H219        H  0.48103882  0.28569893  0.96948840     0.13400
H220        H  0.98088204  0.28694525  0.02294701     0.14000
C221        C  0.45339294  0.64353689  0.99824184     0.03900
C222        C  0.48349439  0.67131208  0.99299295    -0.12200
C223        C  0.47523864  0.71141644  0.98959932     0.01400
C224        C  0.43606063  0.72410074  0.99062666    -0.10700
C225        C  0.40527313  0.69682388  0.99666447     0.03900
C226        C  0.41403194  0.65615828  0.00031596    -0.10200
H227        H  0.00487282  0.67890218  0.99970975     0.09500
H228        H  0.42936945  0.75525849  0.98681588     0.07000
H229        H  0.39064327  0.63469132  0.00447457     0.06900
C230        C  0.45012818  0.65228240  0.49332395     0.03900
C231        C  0.47717931  0.68354784  0.48714646    -0.12200
C232        C  0.46435904  0.72305643  0.48525318     0.01400
C233        C  0.42459977  0.73135946  0.48869115    -0.10700
C234        C  0.39694733  0.70136705  0.49526052     0.03900
C235        C  0.40956129  0.66148633  0.49738329    -0.10200
H236        H  0.01167163  0.66816907  0.49204965     0.09500
H237        H  0.41502964  0.76193067  0.48666932     0.07000
H238        H  0.38819633  0.63805797  0.50213722     0.06900
C239        C  0.36287860  0.95354689  0.99404473     0.03900
C240        C  0.33093899  0.97986400  0.99046596    -0.12200
C241        C  0.29218460  0.96574590  0.99320719     0.01400
C242        C  0.28559463  0.92549043  0.99887708    -0.10700
C243        C  0.31667267  0.89864485  0.00053790     0.03900
C244        C  0.35557627  0.91257665  0.99841302    -0.10200
H245        H  0.35233019  0.50986015  0.02102298     0.09500
H246        H  0.25558350  0.91477156  0.00060360     0.07000
H247        H  0.37978674  0.89187979  0.00035512     0.06900
C248        C  0.36829638  0.95101180  0.49161445     0.03900
C249        C  0.34094350  0.98125509  0.48540958    -0.12200
C250        C  0.30114698  0.97319187  0.48347609     0.01400
C251        C  0.28806790  0.93391401  0.48629111    -0.10700
C252        C  0.31495556  0.90264889  0.49211134     0.03900
C253        C  0.35552987  0.91137199  0.49483619    -0.10200
H254        H  0.33789179  0.50897142  0.50003154     0.09500
H255        H  0.25692432  0.92766944  0.48412141     0.07000
H256        H  0.37675736  0.88780807  0.49941849     0.06900
Zn257      Zn  0.05427391  0.98388032  0.95652939     1.49700
Zn258      Zn  0.02493042  0.55952052  0.04582562     1.49400
Zn259      Zn  0.46433933  0.51951582  0.95786431     1.49100
Zn260      Zn  0.48572099  0.97028593  0.03859326     1.49500
O261        O  0.00678124  0.51526492  0.00368571    -1.83300
O262        O  0.09669258  0.52917250  0.97301415    -0.74000
O263        O  0.49382377  0.59315560  0.02958775    -0.73800
O264        O  0.47560626  0.51350749  0.88272249    -0.73300
O265        O  0.08184637  0.57454101  0.03081693    -0.74000
O266        O  0.03745995  0.98756392  0.88320529    -0.73600
O267        O  0.44993310  0.57671296  0.97101991    -0.74200
O268        O  0.42911500  0.95452864  0.02360573    -0.73500
O269        O  0.02052781  0.54530251  0.12069129    -0.74300
O270        O  0.41118246  0.99942846  0.96654693    -0.73700
O271        O  0.49080800  0.98399162  0.11251302    -0.74200
O272        O  0.02593102  0.90990111  0.02997110    -0.74100
O273        O  0.07044625  0.92706571  0.97227282    -0.73900
C274        C  0.10636484  0.55805534  0.00109873     0.77900
C275        C  0.46524726  0.60192619  0.00072641     0.78400
C276        C  0.00549497  0.51568465  0.86301446     0.77400
C277        C  0.40330785  0.96965534  0.99445142     0.77800
C278        C  0.00811625  0.51468337  0.14415650     0.78900
C279        C  0.05524641  0.90150394  0.00198292     0.77900
Zn280      Zn  0.05014422  0.99065195  0.54435980     1.49700
Zn281      Zn  0.46250784  0.52650277  0.53919786     1.49400
Zn282      Zn  0.02806236  0.55185512  0.46214968     1.49100
Zn283      Zn  0.49158337  0.96298262  0.45311016     1.49500
O284        O  0.00739453  0.50875848  0.50376172    -1.83300
O285        O  0.03537513  0.99317271  0.61757865    -0.74000
O286        O  0.44920146  0.58513322  0.52434783    -0.73800
O287        O  0.08528388  0.56722558  0.47790618    -0.73300
O288        O  0.47616632  0.51924436  0.61399254    -0.74000
O289        O  0.10114069  0.52228398  0.53560230    -0.73600
O290        O  0.49525004  0.60180271  0.46849856    -0.74200
O291        O  0.49725062  0.97804450  0.37919133    -0.73500
O292        O  0.41747031  0.99296407  0.52261890    -0.74300
O293        O  0.02395430  0.53832869  0.38825547    -0.73700
O294        O  0.43506824  0.94767829  0.46585508    -0.74200
O295        O  0.02481848  0.91678672  0.47228762    -0.74100
O296        O  0.06786989  0.93566164  0.53082159    -0.73900
C297        C  0.00539449  0.51139302  0.64330270     0.77900
C298        C  0.46527719  0.61076946  0.49529460     0.78400
C299        C  0.11043440  0.55142569  0.50751471     0.77400
C300        C  0.00954310  0.50927576  0.36395106     0.77800
C301        C  0.40949188  0.96341560  0.49456941     0.78900
C302        C  0.05332368  0.90964221  0.50190096     0.77900
C303        C  0.07002069  0.86044667  0.00280223     0.03900
C304        C  0.04249533  0.82975072  0.00730980    -0.12200
C305        C  0.05453055  0.79016807  0.00759913     0.01400
C306        C  0.09432665  0.78133464  0.00463895    -0.10700
C307        C  0.12243840  0.81132619  0.00095570     0.03900
C308        C  0.11036453  0.85118709  0.99980158    -0.10200
H309        H  0.01164944  0.83691347  0.01090983     0.09500
H310        H  0.10357768  0.75065286  0.00574503     0.07000
H311        H  0.13198669  0.87456716  0.99693034     0.06900
C312        C  0.06553874  0.86884613  0.50722583     0.03900
C313        C  0.03590755  0.84171619  0.51767468    -0.12200
C314        C  0.04433477  0.80196395  0.52236637     0.01400
C315        C  0.08334963  0.78896463  0.51817959    -0.10700
C316        C  0.11382874  0.81620775  0.50854681     0.03900
C317        C  0.10469889  0.85650225  0.50285821    -0.10200
H318        H  0.00567875  0.85158527  0.52098231     0.09500
H319        H  0.08987322  0.75774880  0.52198964     0.07000
H320        H  0.12764804  0.87793321  0.49540508     0.06900
C321        C  0.20314029  0.61485409  0.00521476     0.03900
C322        C  0.22920140  0.58269889  0.00583562    -0.12200
C323        C  0.21496132  0.54388507  0.00351297     0.01400
C324        C  0.17482764  0.53733577  0.00095124    -0.10700
C325        C  0.14818912  0.56871071  0.00207891     0.03900
C326        C  0.16226228  0.60781793  0.00395739    -0.10200
H327        H  0.26054330  0.58808724  0.00581181     0.09500
H328        H  0.16415222  0.50713298  0.99941347     0.07000
H329        H  0.14181859  0.63233522  0.00395595     0.06900
C330        C  0.15156651  0.56600904  0.50897717     0.03900
C331        C  0.16040470  0.60667659  0.50535839    -0.12200
C332        C  0.19974150  0.61930904  0.50747670     0.01400
C333        C  0.22984416  0.59181517  0.51344258    -0.10700
C334        C  0.22188761  0.55173673  0.51631905     0.03900
C335        C  0.18265218  0.53867614  0.51454095    -0.10200
H336        H  0.13707156  0.62816624  0.50102395     0.09500
H337        H  0.26011800  0.60177164  0.51513498     0.07000
H338        H  0.17632872  0.50735872  0.51726140     0.06900
Zn339      Zn  0.30795658  0.77455935  0.95922919     1.49700
Zn340      Zn  0.28253258  0.71124651  0.04398338     1.49400
Zn341      Zn  0.24519828  0.79902852  0.04327648     1.49100
Zn342      Zn  0.22076188  0.73747076  0.95917430     1.49500
O343        O  0.26429487  0.75540843  0.00146578    -1.83300
O344        O  0.35608253  0.74176337  0.97100765    -0.74000
O345        O  0.27690632  0.72554889  0.11863694    -0.73800
O346        O  0.27718838  0.84710970  0.03117807    -0.73300
O347        O  0.33939813  0.69629708  0.02823171    -0.74000
O348        O  0.32249012  0.83167999  0.97382889    -0.73600
O349        O  0.24898028  0.78493624  0.11685142    -0.74200
O350        O  0.17271543  0.76980563  0.97133499    -0.73500
O351        O  0.24937388  0.66274610  0.03185678    -0.74300
O352        O  0.18879439  0.81468934  0.02888897    -0.73700
O353        O  0.20493663  0.68104908  0.97474004    -0.74200
O354        O  0.23454777  0.74277333  0.88513234    -0.74100
O355        O  0.29362693  0.77069321  0.88483286    -0.73900
C356        C  0.36460029  0.71196715  0.99850270     0.77900
C357        C  0.26227986  0.75540061  0.14141934     0.78400
C358        C  0.30604465  0.85659574  0.00301654     0.77400
C359        C  0.16378906  0.79893289  0.99945077     0.77800
C360        C  0.21960758  0.65517838  0.00429809     0.78900
C361        C  0.26386825  0.75712689  0.86127145     0.77900
Zn362      Zn  0.23629292  0.80394423  0.45835788     1.49700
Zn363      Zn  0.21339323  0.74271073  0.54578361     1.49400
Zn364      Zn  0.27294756  0.71579864  0.45944121     1.49100
Zn365      Zn  0.30106076  0.77887650  0.54089711     1.49500
O366        O  0.25599531  0.76062321  0.50108784    -1.83300
O367        O  0.17898997  0.81736490  0.47449588    -0.74000
O368        O  0.19776588  0.68609367  0.53404632    -0.73800
O369        O  0.26792362  0.72914911  0.38570620    -0.73300
O370        O  0.16457634  0.77374474  0.53490664    -0.74000
O371        O  0.24118435  0.78907455  0.38378810    -0.73600
O372        O  0.23967700  0.66889734  0.47333844    -0.74200
O373        O  0.34819210  0.74467188  0.52615740    -0.73500
O374        O  0.22935040  0.74817706  0.61885182    -0.74300
O375        O  0.32928543  0.69834041  0.47192146    -0.73700
O376        O  0.28913858  0.77449567  0.61633251    -0.74200
O377        O  0.31611474  0.83602514  0.52345946    -0.74100
O378        O  0.26887821  0.85314754  0.46952567    -0.73900
C379        C  0.15470941  0.80200795  0.50579480     0.77900
C380        C  0.21181971  0.66066531  0.50371237     0.78400
C381        C  0.25482608  0.75873649  0.36105715     0.77400
C382        C  0.35563333  0.71437610  0.49907918     0.77800
C383        C  0.25979128  0.76124340  0.64130485     0.78900
C384        C  0.29955515  0.86163462  0.49499683     0.77900
C385        C  0.29382077  0.77582347  0.77729203    -0.12500
C386        C  0.26309146  0.75821865  0.80499044     0.09600
C387        C  0.23128706  0.74188658  0.77836406    -0.12500
C388        C  0.23023327  0.74305567  0.72536984    -0.12500
C389        C  0.26096546  0.76057615  0.69760182     0.09600
C390        C  0.29278094  0.77696364  0.72417709    -0.12500
H391        H  0.31868875  0.78880243  0.79663390     0.13600
H392        H  0.20712023  0.72809342  0.79845222     0.13600
H393        H  0.20532065  0.73003548  0.70616330     0.13600
H394        H  0.31689841  0.79071800  0.70395539     0.13600
C395        C  0.24275954  0.78811937  0.22290492    -0.12500
C396        C  0.26025926  0.75602369  0.19761257     0.09600
C397        C  0.27541107  0.72464668  0.22653814    -0.12500
C398        C  0.27333653  0.72546583  0.27952638    -0.11300
C399        C  0.25607456  0.75768713  0.30483043     0.09600
C400        C  0.24070859  0.78895022  0.27588923    -0.12500
H401        H  0.23062086  0.81273455  0.20177004     0.13600
H402        H  0.28898655  0.69947261  0.20827780     0.13600
H403        H  0.28551474  0.70087511  0.30066941     0.13600
H404        H  0.22717779  0.81414914  0.29414751     0.13600
C405        C  0.47201412  0.51528631  0.77493516    -0.12500
C406        C  0.00543228  0.51538766  0.80678413     0.09600
C407        C  0.03950661  0.50484364  0.77990384    -0.12500
C408        C  0.03943072  0.50359805  0.72692934    -0.12500
C409        C  0.00527759  0.51286539  0.69950690     0.09600
C410        C  0.47228124  0.51670428  0.72176609    -0.12500
H411        H  0.44668578  0.52667853  0.79499818     0.13600
H412        H  0.06186017  0.97135005  0.79529695     0.13600
H413        H  0.06097484  0.97315176  0.70301816     0.13600
H414        H  0.44710296  0.52903398  0.70231551     0.13600
C415        C  0.02201019  0.54466775  0.28166987    -0.12500
C416        C  0.00959733  0.51049635  0.30771653     0.09600
C417        C  0.48948885  0.98008850  0.27240468    -0.12500
C418        C  0.48794975  0.98147909  0.21942408    -0.12500
C419        C  0.00861896  0.51346639  0.20040696     0.09600
C420        C  0.02149868  0.54614588  0.22861464    -0.12500
H421        H  0.03194534  0.57044017  0.30227497     0.13600
H422        H  0.47450266  0.95626937  0.29198624     0.13600
H423        H  0.47196949  0.95858056  0.19958301     0.13600
H424        H  0.03114415  0.57291865  0.20973146     0.13600
C425        C  0.27422703  0.00701594  0.47960879    -0.15600
C426        C  0.25588024  0.52478366  0.51987441    -0.30800
H427        H  0.28331571  0.03240946  0.45713984     0.13400
H428        H  0.28093135  0.53383271  0.54254592     0.14000
C429        C  0.24083114  0.50911489  0.00160077    -0.15600
C430        C  0.25737096  0.99170530  0.99338668    -0.30800
H431        H  0.23053452  0.48357853  0.98053179     0.13400
H432        H  0.23166883  0.98128877  0.01392414     0.14000
C433        C  0.49131322  0.75704942  0.48027075    -0.15600
C434        C  0.01099186  0.77488517  0.52807892    -0.30800
H435        H  0.48147235  0.78250929  0.45852323     0.13400
H436        H  0.98737807  0.78260304  0.55401700     0.14000
C437        C  0.50847737  0.73909243  0.98487858    -0.15600
C438        C  0.02655471  0.75713018  0.01252563    -0.30800
H439        H  0.53475744  0.72879435  0.96566279     0.13400
H440        H  0.03702095  0.73038829  0.03088868     0.14000
C441        C  0.95386064  0.14494784  0.99725056     0.03900
C442        C  0.98362901  0.17305072  0.99159588    -0.12200
C443        C  0.97503693  0.21308389  0.98775305     0.01400
C444        C  0.93580170  0.22553427  0.98869989    -0.10700
C445        C  0.90511693  0.19818125  0.99496751     0.03900
C446        C  0.91426575  0.15743611  0.99905673    -0.10200
H447        H  0.50438327  0.17882944  0.99439022     0.09500
H448        H  0.92902193  0.25665403  0.98470201     0.07000
H449        H  0.89103085  0.13584577  0.00350926     0.06900
C450        C  0.95187815  0.14602349  0.49859383     0.03900
C451        C  0.98199799  0.17384501  0.49756790    -0.12200
C452        C  0.97405471  0.21376574  0.50188383     0.01400
C453        C  0.93497131  0.22658107  0.50585881    -0.10700
C454        C  0.90399920  0.19897072  0.50455062     0.03900
C455        C  0.91263784  0.15834769  0.50178623    -0.10200
H456        H  0.50760222  0.17662415  0.48321123     0.09500
H457        H  0.92854772  0.25791008  0.50744498     0.07000
H458        H  0.88920154  0.13669301  0.50169944     0.06900
C459        C  0.86836913  0.45400323  0.00533665     0.03900
C460        C  0.83982322  0.48323343  0.00978244    -0.12200
C461        C  0.80035939  0.47372521  0.01080620     0.01400
C462        C  0.78874499  0.43387546  0.00853483    -0.10700
C463        C  0.81706603  0.40349030  0.00488313     0.03900
C464        C  0.85726003  0.41385832  0.00312480    -0.10200
H465        H  0.85250166  0.00933591  0.01794281     0.09500
H466        H  0.75778760  0.42656691  0.00975478     0.07000
H467        H  0.87951046  0.39110917  0.00024944     0.06900
C468        C  0.86367701  0.45063167  0.50239819     0.03900
C469        C  0.83216180  0.47781266  0.50344883    -0.12200
C470        C  0.79307416  0.46451500  0.49956740     0.01400
C471        C  0.78568401  0.42437230  0.49553363    -0.10700
C472        C  0.81606008  0.39678867  0.49696932     0.03900
C473        C  0.85531036  0.40977236  0.49994805    -0.10200
H474        H  0.85261712  0.01126261  0.47983797     0.09500
H475        H  0.75546838  0.41434738  0.49313959     0.07000
H476        H  0.87897856  0.38840096  0.50033938     0.06900
Zn477      Zn  0.55060066  0.48322062  0.95525002     1.49700
Zn478      Zn  0.52275791  0.05847779  0.03848840     1.49400
Zn479      Zn  0.96572768  0.01997834  0.95962038     1.49100
Zn480      Zn  0.99011427  0.47115259  0.04664415     1.49500
O481        O  0.50408933  0.01422819  0.99642602    -1.83300
O482        O  0.59587334  0.02804256  0.96737667    -0.74000
O483        O  0.99638942  0.09513443  0.02718476    -0.73800
O484        O  0.97765251  0.01399394  0.88533311    -0.73300
O485        O  0.58008521  0.07339795  0.02464216    -0.74000
O486        O  0.53478678  0.48611131  0.88134480    -0.73600
O487        O  0.95022702  0.07723421  0.97244182    -0.74200
O488        O  0.93453374  0.45356935  0.03338616    -0.73500
O489        O  0.51857030  0.04349753  0.11278170    -0.74300
O490        O  0.91662370  0.49733497  0.97479494    -0.73700
O491        O  0.99533675  0.48472344  0.12019629    -0.74200
O492        O  0.52452639  0.40951974  0.03030933    -0.74100
O493        O  0.56854638  0.42706900  0.97212090    -0.73900
C494        C  0.60519450  0.05699605  0.99567901     0.77900
C495        C  0.96646153  0.10325594  0.00013872     0.78400
C496        C  0.50426531  0.01314909  0.85633907     0.77400
C497        C  0.90906367  0.46793052  0.00342598     0.77800
C498        C  0.50514167  0.01337048  0.13631206     0.78900
C499        C  0.55389489  0.40145508  0.00224347     0.77900
Zn500      Zn  0.55225938  0.48750843  0.54056161     1.49700
Zn501      Zn  0.96413011  0.02360509  0.54229175     1.49400
Zn502      Zn  0.52692792  0.05272906  0.45421226     1.49100
Zn503      Zn  0.98892853  0.46511307  0.46143257     1.49500
O504        O  0.50817023  0.00788506  0.49571312    -1.83300
O505        O  0.53550082  0.49121481  0.61421675    -0.74000
O506        O  0.94896084  0.07996406  0.52823029    -0.73800
O507        O  0.58308350  0.06786911  0.47029414    -0.73300
O508        O  0.97504674  0.01753410  0.61737012    -0.74000
O509        O  0.59766178  0.02213289  0.52805266    -0.73600
O510        O  0.99220286  0.09591361  0.46811541    -0.74200
O511        O  0.99483659  0.47952613  0.38702924    -0.73500
O512        O  0.91270626  0.49511541  0.53135910    -0.74300
O513        O  0.52300796  0.03854520  0.37996328    -0.73700
O514        O  0.93107264  0.44998543  0.47522994    -0.74200
O515        O  0.52113933  0.41140836  0.47162775    -0.74100
O516        O  0.56791706  0.42984834  0.52504848    -0.73900
C517        C  0.50566070  0.00925314  0.63616565     0.77900
C518        C  0.96382349  0.10470086  0.49730522     0.78400
C519        C  0.60724324  0.05172002  0.50069672     0.77400
C520        C  0.51017218  0.00852847  0.35593158     0.77800
C521        C  0.90475377  0.46562244  0.50332985     0.78900
C522        C  0.55167559  0.40339104  0.49778179     0.77900
C523        C  0.56912161  0.36057772  0.00319454     0.03900
C524        C  0.54178529  0.32967089  0.00686276    -0.12200
C525        C  0.55405825  0.29018063  0.00677389     0.01400
C526        C  0.59391818  0.28159854  0.00468583    -0.10700
C527        C  0.62185961  0.31180619  0.00184548     0.03900
C528        C  0.60955484  0.35161622  0.00079543    -0.10200
H529        H  0.51082847  0.33656151  0.00981887     0.09500
H530        H  0.60332636  0.25096085  0.00548913     0.07000
H531        H  0.63104023  0.37515448  0.99839683     0.06900
C532        C  0.56680003  0.36189167  0.49846208     0.03900
C533        C  0.53940709  0.33065612  0.49905750    -0.12200
C534        C  0.55188467  0.29117828  0.50355820     0.01400
C535        C  0.59169931  0.28289885  0.50706766    -0.10700
C536        C  0.61988948  0.31278866  0.50415617     0.03900
C537        C  0.60748580  0.35268354  0.50017834    -0.10200
H538        H  0.50832342  0.33730903  0.49828671     0.09500
H539        H  0.60093664  0.25228335  0.51010737     0.07000
H540        H  0.62908177  0.37615066  0.49877644     0.06900
C541        C  0.70205921  0.11439988  0.00453068     0.03900
C542        C  0.72814173  0.08214872  0.00651571    -0.12200
C543        C  0.71414584  0.04314294  0.00333669     0.01400
C544        C  0.67402609  0.03657571  0.99853618    -0.10700
C545        C  0.64719487  0.06785369  0.99821683     0.03900
C546        C  0.66119959  0.10707542  0.00104498    -0.10200
H547        H  0.75940638  0.08770094  0.00804344     0.09500
H548        H  0.66342476  0.00637776  0.99634702     0.07000
H549        H  0.64068073  0.13151038  0.00005273     0.06900
C550        C  0.64865448  0.06391999  0.50117962     0.03900
C551        C  0.66153275  0.10358932  0.49951024    -0.12200
C552        C  0.70222121  0.11202217  0.49841729     0.01400
C553        C  0.72914959  0.08051642  0.49747022    -0.10700
C554        C  0.71597211  0.04127502  0.49970762     0.03900
C555        C  0.67615411  0.03344688  0.50239212    -0.10200
H556        H  0.64031925  0.12742590  0.49929956     0.09500
H557        H  0.76036439  0.08663857  0.49718091     0.07000
H558        H  0.66641363  0.00290072  0.50365888     0.06900
Zn559      Zn  0.80722054  0.27779348  0.95992795     1.49700
Zn560      Zn  0.78211916  0.21172859  0.04243421     1.49400
Zn561      Zn  0.74491605  0.30114742  0.04440503     1.49100
Zn562      Zn  0.72024083  0.23823196  0.95980826     1.49500
O563        O  0.76381317  0.25725972  0.00173859    -1.83300
O564        O  0.85595129  0.24469545  0.97200266    -0.74000
O565        O  0.77817110  0.22584942  0.11702975    -0.73800
O566        O  0.77497050  0.35172426  0.03212154    -0.73300
O567        O  0.83876234  0.19662401  0.02535037    -0.74000
O568        O  0.82031702  0.33638287  0.97491011    -0.73600
O569        O  0.75085569  0.28568180  0.11811379    -0.74200
O570        O  0.67250701  0.27113288  0.97155069    -0.73500
O571        O  0.74867849  0.16262722  0.03109110    -0.74300
O572        O  0.68789077  0.31493971  0.03097778    -0.73700
O573        O  0.70368618  0.18139553  0.97527657    -0.74200
O574        O  0.73458010  0.24252586  0.88588611    -0.74100
O575        O  0.79293613  0.27210886  0.88530882    -0.73900
C576        C  0.86428426  0.21353382  0.99725670     0.77900
C577        C  0.76465199  0.25553730  0.14124335     0.78400
C578        C  0.80382461  0.36156066  0.00404835     0.77400
C579        C  0.66325503  0.29965041  0.00056633     0.77800
C580        C  0.71856885  0.15509587  0.00407724     0.78900
C581        C  0.76376854  0.25701507  0.86188485     0.77900
Zn582      Zn  0.74268674  0.29745443  0.45827001     1.49700
Zn583      Zn  0.71803551  0.23598627  0.54396067     1.49400
Zn584      Zn  0.78073124  0.20990289  0.46024435     1.49100
Zn585      Zn  0.80537642  0.27389704  0.54330771     1.49500
O586        O  0.76168167  0.25418795  0.50146715    -1.83300
O587        O  0.68614513  0.31442196  0.47323644    -0.74000
O588        O  0.70199799  0.17897924  0.52763498    -0.73800
O589        O  0.77678141  0.22372764  0.38540352    -0.73300
O590        O  0.67052572  0.27038860  0.53252772    -0.74000
O591        O  0.74762375  0.28252698  0.38467499    -0.73600
O592        O  0.74811404  0.16086579  0.47263516    -0.74200
O593        O  0.85455235  0.24310103  0.53135038    -0.73500
O594        O  0.73286229  0.24012356  0.61838050    -0.74300
O595        O  0.83766039  0.19649063  0.47628825    -0.73700
O596        O  0.79158754  0.26889955  0.61752243    -0.74200
O597        O  0.81963707  0.33079369  0.52810524    -0.74100
O598        O  0.77574278  0.34518541  0.46861400    -0.73900
C599        C  0.66141348  0.29959831  0.50416744     0.77900
C600        C  0.71777013  0.15296825  0.49917774     0.78400
C601        C  0.76246216  0.25315082  0.36132403     0.77400
C602        C  0.86312468  0.21322458  0.50440587     0.77800
C603        C  0.76242417  0.25449031  0.64167840     0.78900
C604        C  0.80429437  0.35501886  0.49697059     0.77900
C605        C  0.79575618  0.27062671  0.77761746    -0.12500
C606        C  0.76361310  0.25617374  0.80554042     0.09600
C607        C  0.73119471  0.24082273  0.77905627    -0.12500
C608        C  0.73085283  0.24010885  0.72596736    -0.12500
C609        C  0.76292780  0.25471210  0.69803367     0.09600
C610        C  0.79542026  0.26989906  0.72451532    -0.12500
H611        H  0.82122312  0.28256161  0.79676861     0.13600
H612        H  0.70592802  0.22941389  0.79933467     0.13600
H613        H  0.70535550  0.22822173  0.70683297     0.13600
H614        H  0.82065556  0.28135597  0.70421818     0.13600
C615        C  0.74819182  0.28646627  0.22499750    -0.12500
C616        C  0.76460531  0.25494639  0.19756606     0.09600
C617        C  0.78046023  0.22275737  0.22451068    -0.12500
C618        C  0.77978548  0.22207656  0.27764171    -0.11300
C619        C  0.76319969  0.25355088  0.30501315     0.09600
C620        C  0.74748477  0.28576922  0.27802277    -0.12500
H621        H  0.73568597  0.31171118  0.20551318     0.13600
H622        H  0.79335613  0.19800414  0.20456588     0.13600
H623        H  0.79224099  0.19686367  0.29724472     0.13600
H624        H  0.73454389  0.31055700  0.29785292     0.13600
C625        C  0.97360764  0.01713669  0.77842251    -0.12500
C626        C  0.50455491  0.01235807  0.79999303     0.09600
C627        C  0.53528856  0.99369122  0.77364803    -0.12500
C628        C  0.53558327  0.99265345  0.72058827    -0.12500
C629        C  0.50515988  0.01026933  0.69250200     0.09600
C630        C  0.97308372  0.01819138  0.72535494    -0.12500
H631        H  0.94909386  0.02973387  0.79898157     0.13600
H632        H  0.56178984  0.47321583  0.79350840     0.13600
H633        H  0.56222246  0.47556608  0.70112930     0.13600
H634        H  0.94821309  0.03152665  0.70633066     0.13600
C635        C  0.52850804  0.03988770  0.27279240    -0.12500
C636        C  0.50965607  0.00935384  0.29970840     0.09600
C637        C  0.99678370  0.47781168  0.27949769    -0.12500
C638        C  0.99633145  0.47926446  0.22648512    -0.12500
C639        C  0.50656674  0.01215747  0.19250138     0.09600
C640        C  0.52700068  0.04125902  0.21977183    -0.12500
H641        H  0.54443309  0.06279289  0.29269246     0.13600
H642        H  0.98708500  0.45104286  0.29834801     0.13600
H643        H  0.98632428  0.45348995  0.20594362     0.13600
H644        H  0.54193394  0.06509347  0.20015664     0.13600
C645        C  0.75861515  0.49102197  0.49750367    -0.15600
C646        C  0.74264018  0.00722242  0.50106180    -0.30800
H647        H  0.73365016  0.48167959  0.47482718     0.13400
H648        H  0.73374409  0.98164838  0.52336125     0.14000
C649        C  0.74015190  0.00810038  0.00239257    -0.15600
C650        C  0.77246270  0.50681840  0.01399283    -0.30800
H651        H  0.72930436  0.98191327  0.98318908     0.13400
H652        H  0.77855598  0.53049788  0.04066483     0.14000
C653        C  0.00780773  0.24071541  0.49960022    -0.15600
C654        C  0.52462357  0.25722248  0.50595194    -0.30800
H655        H  0.03247987  0.23222920  0.47577185     0.13400
H656        H  0.53394825  0.23126489  0.52714170     0.14000
C657        C  0.00809865  0.24097689  0.98275199    -0.15600
C658        C  0.52607942  0.25704376  0.00977644    -0.30800
H659        H  0.03439415  0.23065042  0.96364286     0.13400
H660        H  0.53577890  0.23024747  0.02872206     0.14000
C661        C  0.94638706  0.65559418  0.00484425     0.03900
C662        C  0.97398761  0.68624339  0.00176953    -0.12200
C663        C  0.96193024  0.72572837  0.99854885     0.01400
C664        C  0.92203161  0.73440235  0.99808441    -0.10700
C665        C  0.89381578  0.70443304  0.00203033     0.03900
C666        C  0.90597183  0.66467948  0.00532462    -0.10200
H667        H  0.51382596  0.66156050  0.99146447     0.09500
H668        H  0.91286765  0.76505849  0.99566910     0.07000
H669        H  0.88439646  0.64122192  0.00771157     0.06900
C670        C  0.95138481  0.64958914  0.49768554     0.03900
C671        C  0.98128734  0.67757565  0.49502188    -0.12200
C672        C  0.97331839  0.71746403  0.49916918     0.01400
C673        C  0.93433298  0.73040685  0.50406319    -0.10700
C674        C  0.90318509  0.70293854  0.50371071     0.03900
C675        C  0.91196667  0.66210901  0.50142404    -0.10200
H676        H  0.50822649  0.67711563  0.48390251     0.09500
H677        H  0.92817629  0.76179151  0.50583947     0.07000
H678        H  0.88854325  0.64046990  0.50250338     0.06900
C679        C  0.86833753  0.94801380  0.01069837     0.03900
C680        C  0.84177899  0.97914166  0.01674030    -0.12200
C681        C  0.80164711  0.97229168  0.02043115     0.01400
C682        C  0.78758077  0.93325924  0.01944229    -0.10700
C683        C  0.81349806  0.90124624  0.01311415     0.03900
C684        C  0.85427360  0.90878541  0.00878626    -0.10200
H685        H  0.84845308  0.51408557  0.01195204     0.09500
H686        H  0.75639841  0.92769356  0.02309560     0.07000
H687        H  0.87468037  0.88457248  0.00368655     0.06900
C688        C  0.86977366  0.95068118  0.49125875     0.03900
C689        C  0.84271494  0.98082860  0.48268717    -0.12200
C690        C  0.80303165  0.97257612  0.47920166     0.01400
C691        C  0.79009048  0.93329997  0.48264527    -0.10700
C692        C  0.81701844  0.90248607  0.49119465     0.03900
C693        C  0.85722464  0.91129989  0.49554294    -0.10200
H694        H  0.83820000  0.50921346  0.50505560     0.09500
H695        H  0.75907191  0.92674177  0.47930110     0.07000
H696        H  0.87838772  0.88796665  0.50223525     0.06900
Zn697      Zn  0.54803914  0.99535035  0.95460097     1.49700
Zn698      Zn  0.52695575  0.54573216  0.04111912     1.49400
Zn699      Zn  0.96262202  0.53226864  0.96176710     1.49100
Zn700      Zn  0.99374450  0.95839430  0.04316147     1.49500
O701        O  0.50841379  0.50149442  0.99949119    -1.83300
O702        O  0.59657557  0.51890585  0.96321612    -0.74000
O703        O  0.99150668  0.60733832  0.03270521    -0.73800
O704        O  0.97553106  0.52835062  0.88697833    -0.73300
O705        O  0.58212259  0.56296707  0.02275462    -0.74000
O706        O  0.53390099  0.99975689  0.88042514    -0.73600
O707        O  0.94579331  0.58854476  0.97754629    -0.74200
O708        O  0.93611687  0.94320563  0.03351812    -0.73500
O709        O  0.52442293  0.53243234  0.11577769    -0.74300
O710        O  0.91822857  0.98770523  0.97594268    -0.73700
O711        O  0.00143882  0.97356918  0.11623164    -0.74200
O712        O  0.51904092  0.92245378  0.02709294    -0.74100
O713        O  0.56429825  0.93836400  0.96996019    -0.73900
C714        C  0.60581406  0.54852080  0.99041445     0.77900
C715        C  0.96133434  0.61472769  0.00576333     0.78400
C716        C  0.50476442  0.49958804  0.85822417     0.77400
C717        C  0.91004530  0.95905854  0.00551092     0.77800
C718        C  0.51186942  0.50247452  0.14033813     0.78900
C719        C  0.54860945  0.91334923  0.99992004     0.77900
Zn720      Zn  0.55021648  0.98879563  0.53959347     1.49700
Zn721      Zn  0.96190312  0.52690033  0.54418603     1.49400
Zn722      Zn  0.52829355  0.55194493  0.45788796     1.49100
Zn723      Zn  0.99256928  0.96332825  0.45646787     1.49500
O724        O  0.50793990  0.50706080  0.49894154    -1.83300
O725        O  0.53521742  0.99444462  0.61338938    -0.74000
O726        O  0.94711072  0.58331768  0.52768566    -0.73800
O727        O  0.58605042  0.56694390  0.47470454    -0.73300
O728        O  0.97527431  0.52324598  0.61885756    -0.74000
O729        O  0.60177698  0.52074570  0.53100236    -0.73600
O730        O  0.99430781  0.59897893  0.47282012    -0.74200
O731        O  0.99966302  0.97570077  0.38238360    -0.73500
O732        O  0.91789527  0.99112446  0.52604589    -0.74300
O733        O  0.52421254  0.53602276  0.38367275    -0.73700
O734        O  0.93651672  0.94752096  0.46765629    -0.74200
O735        O  0.52300965  0.91346775  0.46645159    -0.74100
O736        O  0.56547772  0.93117182  0.52600995    -0.73900
C737        C  0.50545640  0.50448338  0.63776479     0.77900
C738        C  0.96394443  0.60806769  0.49852264     0.78400
C739        C  0.61109510  0.55092502  0.50442045     0.77400
C740        C  0.51067247  0.50581845  0.36043248     0.77800
C741        C  0.91055488  0.96261659  0.49627109     0.78900
C742        C  0.55116899  0.90518691  0.49632446     0.77900
C743        C  0.56165451  0.87166409  0.00070439     0.03900
C744        C  0.53207308  0.84310960  0.00347278    -0.12200
C745        C  0.54076805  0.80302126  0.00243384     0.01400
C746        C  0.58003509  0.79080953  0.99998355    -0.10700
C747        C  0.61062066  0.81863103  0.99888432     0.03900
C748        C  0.60135895  0.85947636  0.99871681    -0.10200
H749        H  0.50154460  0.85219550  0.00507954     0.09500
H750        H  0.58709518  0.75961459  0.00123748     0.07000
H751        H  0.62458843  0.88131282  0.99740529     0.06900
C752        C  0.56596784  0.86401815  0.49796004     0.03900
C753        C  0.53886124  0.83248233  0.49811147    -0.12200
C754        C  0.55188426  0.79317984  0.50310545     0.01400
C755        C  0.59177651  0.78569654  0.50742831    -0.10700
C756        C  0.61928038  0.81624136  0.50493300     0.03900
C757        C  0.60649686  0.85566003  0.50056740    -0.10200
H758        H  0.50772022  0.83877584  0.49654197     0.09500
H759        H  0.60165689  0.75530166  0.51081067     0.07000
H760        H  0.62774455  0.87947412  0.49941666     0.06900
C761        C  0.69771002  0.61327163  0.99423879     0.03900
C762        C  0.72618515  0.58305738  0.99123660    -0.12200
C763        C  0.71480643  0.54348671  0.98419306     0.01400
C764        C  0.67536719  0.53410885  0.98080249    -0.10700
C765        C  0.64650042  0.56289124  0.98725732     0.03900
C766        C  0.65751693  0.60285128  0.99322181    -0.10200
H767        H  0.75710776  0.59045360  0.99276004     0.09500
H768        H  0.66708734  0.50332756  0.97635383     0.07000
H769        H  0.63520236  0.62541737  0.99736277     0.06900
C770        C  0.65234991  0.56616575  0.50752987     0.03900
C771        C  0.66173222  0.60699375  0.50383660    -0.12200
C772        C  0.70134246  0.61951844  0.50751617     0.01400
C773        C  0.73085369  0.59166339  0.51518791    -0.10700
C774        C  0.72246969  0.55168647  0.51819200     0.03900
C775        C  0.68323908  0.53884488  0.51478329    -0.10200
H776        H  0.63868390  0.62860443  0.49826488     0.09500
H777        H  0.76117385  0.60126665  0.51827207     0.07000
H778        H  0.67675133  0.50757259  0.51764796     0.06900
Zn779      Zn  0.79576845  0.77906468  0.96256153     1.49700
Zn780      Zn  0.76995117  0.71299581  0.04354314     1.49400
Zn781      Zn  0.73333565  0.80273708  0.04562823     1.49100
Zn782      Zn  0.70860201  0.74059541  0.95914154     1.49500
O783        O  0.75169135  0.75873761  0.00287664    -1.83300
O784        O  0.84311725  0.74634928  0.97487772    -0.74000
O785        O  0.76397464  0.72579502  0.11819998    -0.73800
O786        O  0.76687116  0.85202097  0.03672697    -0.73300
O787        O  0.82733334  0.69958268  0.03053592    -0.74000
O788        O  0.81190309  0.83552537  0.97980749    -0.73600
O789        O  0.73754004  0.78604051  0.11944659    -0.74200
O790        O  0.65980742  0.77366662  0.97178216    -0.73500
O791        O  0.73958432  0.66310495  0.02728833    -0.74300
O792        O  0.67680379  0.81867741  0.02913993    -0.73700
O793        O  0.69486738  0.68183056  0.97082097    -0.74200
O794        O  0.72462016  0.74770857  0.88524495    -0.74100
O795        O  0.78373443  0.77555905  0.88807382    -0.73900
C796        C  0.85232776  0.71664233  0.00199034     0.77900
C797        C  0.75081522  0.75558566  0.14250305     0.78400
C798        C  0.79693789  0.86066593  0.01003662     0.77400
C799        C  0.65148463  0.80349528  0.99937367     0.77800
C800        C  0.71087775  0.65507090  0.99813122     0.78900
C801        C  0.75481149  0.76198953  0.86296623     0.77900
Zn802      Zn  0.74113919  0.80342221  0.45906850     1.49700
Zn803      Zn  0.71746699  0.74330912  0.54598021     1.49400
Zn804      Zn  0.77868244  0.71589076  0.46176440     1.49100
Zn805      Zn  0.80491578  0.78020451  0.54404966     1.49500
O806        O  0.76091101  0.76069417  0.50268628    -1.83300
O807        O  0.68490848  0.81920904  0.47393190    -0.74000
O808        O  0.69961652  0.68706080  0.53281379    -0.73800
O809        O  0.77300900  0.72837059  0.38660121    -0.73300
O810        O  0.67040234  0.77640366  0.53504127    -0.74000
O811        O  0.74439135  0.78740898  0.38573783    -0.73600
O812        O  0.74453214  0.66847199  0.47652961    -0.74200
O813        O  0.85416952  0.74815066  0.53100669    -0.73500
O814        O  0.73203401  0.74857370  0.61911240    -0.74300
O815        O  0.83601294  0.70120102  0.47699130    -0.73700
O816        O  0.79128999  0.77614215  0.61945548    -0.74200
O817        O  0.81802154  0.83734933  0.52615945    -0.74100
O818        O  0.77313720  0.85204872  0.46785919    -0.73900
C819        C  0.66074525  0.80449505  0.50554568     0.77900
C820        C  0.71468969  0.66093132  0.50425359     0.78400
C821        C  0.75800586  0.75742063  0.36246107     0.77400
C822        C  0.86214494  0.71776721  0.50438308     0.77800
C823        C  0.76137911  0.76249179  0.64300500     0.78900
C824        C  0.80230633  0.86167174  0.49519086     0.77900
C825        C  0.79094446  0.77456952  0.78118126    -0.12500
C826        C  0.75656017  0.76260945  0.80669215     0.09600
C827        C  0.72397695  0.75086563  0.77787640    -0.12500
C828        C  0.72570068  0.75094845  0.72490149    -0.12500
C829        C  0.76006982  0.76274996  0.69930682     0.09600
C830        C  0.79267648  0.77464708  0.72805508    -0.12500
H831        H  0.81664793  0.78369482  0.80225778     0.13600
H832        H  0.69703665  0.74157850  0.79623609     0.13600
H833        H  0.69994165  0.74174538  0.70399315     0.13600
H834        H  0.81958082  0.78385654  0.70954620     0.13600
C835        C  0.73396974  0.78581832  0.22657570    -0.12500
C836        C  0.75173069  0.75522933  0.19884413     0.09600
C837        C  0.77141012  0.72506195  0.22546257    -0.12500
C838        C  0.77350535  0.72567321  0.27854808    -0.11300
C839        C  0.75594511  0.75644866  0.30620169     0.09600
C840        C  0.73603670  0.78641437  0.27955059    -0.12500
H841        H  0.71853216  0.80947860  0.20734134     0.13600
H842        H  0.78560052  0.70116498  0.20526130     0.13600
H843        H  0.78907858  0.70215358  0.29788203     0.13600
H844        H  0.72198467  0.81046234  0.29962034     0.13600
C845        C  0.97130585  0.52488540  0.77941358    -0.12500
C846        C  0.50420122  0.49974336  0.80178913     0.09600
C847        C  0.53647657  0.48534450  0.77413851    -0.12500
C848        C  0.53674499  0.48675862  0.72106502    -0.12500
C849        C  0.50474577  0.50262357  0.69416804     0.09600
C850        C  0.97122697  0.52363333  0.72632985    -0.12500
H851        H  0.94453908  0.53299530  0.79899872     0.13600
H852        H  0.55913877  0.97968791  0.79402365     0.13600
H853        H  0.55967725  0.97793623  0.70158975     0.13600
H854        H  0.94442124  0.53091170  0.70633901     0.13600
C855        C  0.52576743  0.53726754  0.27608531    -0.12500
C856        C  0.51158070  0.50484278  0.30411481     0.09600
C857        C  0.00239487  0.97129647  0.27572245    -0.12500
C858        C  0.00310414  0.97079599  0.22274171    -0.12500
C859        C  0.51238499  0.50304842  0.19665668     0.09600
C860        C  0.52614921  0.53638546  0.22298555    -0.12500
H861        H  0.53641483  0.56347023  0.29514303     0.13600
H862        H  0.99234595  0.94516930  0.29572173     0.13600
H863        H  0.99353610  0.94429972  0.20339303     0.13600
H864        H  0.53704745  0.56196603  0.20257222     0.13600
C865        C  0.77599307  0.00616923  0.47457935    -0.15600
C866        C  0.75622540  0.52460767  0.52372606    -0.30800
H867        H  0.78525895  0.03176183  0.45260592     0.13400
H868        H  0.78116840  0.53432447  0.54614493     0.14000
C869        C  0.74280076  0.51038371  0.98136035    -0.15600
C870        C  0.77551596  0.00704473  0.02445699    -0.30800
H871        H  0.73688597  0.48661592  0.95472335     0.13400
H872        H  0.78684695  0.03313511  0.04333271     0.14000
C873        C  0.00711609  0.74428214  0.49687228    -0.15600
C874        C  0.52525278  0.75870390  0.50547567    -0.30800
H875        H  0.03077517  0.73713507  0.47067648     0.13400
H876        H  0.53470158  0.73316835  0.52742676     0.14000
C877        C  0.98998473  0.75879614  0.99397918    -0.15600
C878        C  0.50768468  0.77504769  0.00583533    -0.30800
H879        H  0.97972351  0.78561662  0.97555695     0.13400
H880        H  0.48137204  0.78500297  0.02531151     0.14000
loop_ 
_geom_bond_atom_site_label_1 
_geom_bond_atom_site_label_2 
_geom_bond_distance 
_geom_bond_site_symmetry_2 
_ccdc_geom_bond_type 
C1            C2   1.402       .  A
C1            C6   1.414       .  A
C1           C55   1.477       .  S
C2            C3   1.400       .  A
C2          H447   1.083       .  S
C3            C4   1.391       .  A
C3          C217   1.475       .  S
C4            C5   1.400       .  A
C4            H8   1.085       .  S
C5            C6   1.412       .  A
C5          C136   1.477       .  S
C6            H9   1.083       .  S
H7          C442   1.085   1_455  S
C10          C11   1.410       .  A
C10          C15   1.414       .  A
C10          C78   1.486       .  S
C11          C12   1.406       .  A
C11         H456   1.083       .  S
C12          C13   1.387       .  A
C12         C213   1.477       .  S
C13          C14   1.396       .  A
C13          H17   1.086       .  S
C14          C15   1.411       .  A
C14         C162   1.469       .  S
C15          H18   1.083       .  S
H16         C451   1.086   1_455  S
C19          C20   1.396       .  A
C19          C24   1.407       .  A
C19          C57   1.463       .  S
C20          C21   1.387       .  A
C20         H245   1.086       .  S
C21          C22   1.403       .  A
C21         C210   1.472       .  S
C22          C23   1.405       .  A
C22          H26   1.083       .  S
C23          C24   1.411       .  A
C23         C138   1.477       .  S
C24          H27   1.083   1_554  S
H25         C240   1.083   1_545  S
C28          C29   1.414       .  A
C28          C33   1.421       .  A
C28          C81   1.499       .  S
C29          C30   1.410       .  A
C29         H254   1.083       .  S
C30          C31   1.386       .  A
C30         C205   1.479       .  S
C31          C32   1.395       .  A
C31          H35   1.086       .  S
C32          C33   1.417       .  A
C32         C164   1.481       .  S
C33          H36   1.083       .  S
H34         C249   1.086   1_545  S
Zn37         O46   2.006       .  S
Zn37         O53   2.030       .  S
Zn37        O262   1.974       .  S
Zn37        O261   1.950   1_556  S
Zn38         O45   2.050       .  S
Zn38         O49   2.021       .  S
Zn38        O483   2.010   1_455  S
Zn38         O41   1.963   1_554  S
Zn39         O44   2.030       .  S
Zn39         O47   2.035       .  S
Zn39        O270   2.021   1_545  S
Zn39        O481   1.969       .  S
Zn40         O48   2.026       .  S
Zn40         O51   2.022       .  S
Zn40        O492   2.003       .  S
Zn40        O701   1.961   1_554  S
O41        Zn257   1.965   1_545  S
O41        Zn479   1.964   1_455  S
O41        Zn700   1.965   1_446  S
O42        Zn257   2.020   1_545  S
O42          C54   1.274       .  A
O43        Zn478   2.017       .  S
O43          C55   1.275   1_554  A
O44         C496   1.277       .  A
O45          C54   1.275   1_554  A
O46         C276   1.273       .  A
O47          C55   1.274       .  A
O48          C57   1.272       .  A
O49          C58   1.276       .  A
O50        Zn259   1.982       .  S
O50          C57   1.272   1_556  A
O51         C718   1.275       .  A
O52        Zn480   1.974   1_455  S
O52          C59   1.269       .  A
O53          C59   1.272   1_556  A
C54         C105   1.486       .  S
C56         C186   1.479       .  S
C56         O484   1.274   1_455  A
C56         O266   1.276   1_545  A
C58         C199   1.480       .  S
C58         O711   1.275   1_545  A
C59          C83   1.467       .  S
Zn60         O65   2.014       .  S
Zn60         O76   2.011       .  S
Zn60        O289   2.013       .  S
Zn60        O284   1.968       .  S
Zn61         O66   2.055       .  S
Zn61         O68   2.024       .  S
Zn61        O292   1.998   1_545  S
Zn61        O504   1.957       .  S
Zn62         O67   2.019       .  S
Zn62         O73   2.012       .  S
Zn62        O510   1.962   1_455  S
Zn62         O64   1.944       .  S
Zn63         O71   2.021       .  S
Zn63         O74   2.071       .  S
Zn63        O515   2.051       .  S
Zn63        O724   1.982       .  S
O64        Zn280   1.934   1_545  S
O64        Zn501   1.950   1_455  S
O64        Zn723   1.943   1_445  S
O65         C297   1.276       .  A
O66          C78   1.275       .  A
O67          C79   1.271       .  A
O68         C517   1.275       .  A
O69        Zn280   1.953   1_545  S
O69          C79   1.268       .  A
O70        Zn502   2.015       .  S
O70          C78   1.273       .  A
O71         C740   1.278       .  A
O72        Zn281   2.054       .  S
O72          C81   1.277       .  A
O73          C80   1.272       .  A
O74          C81   1.278       .  A
O75        Zn503   2.010   1_455  S
O75          C82   1.276       .  A
O76          C82   1.270       .  A
C77         C189   1.479       .  S
C77         O285   1.270   1_545  A
C77         O508   1.273   1_455  A
C79         C110   1.459       .  S
C80         C196   1.480       .  S
C80         O731   1.272   1_445  A
C82          C92   1.465       .  S
C83          C84   1.398       .  A
C83          C88   1.406   1_554  A
C84          C85   1.390       .  A
C84          H89   1.085       .  S
C85          C86   1.403   1_554  A
C85         C218   1.476       .  S
C86          C87   1.405       .  A
C86          H90   1.083       .  S
C87          C88   1.409       .  A
C87         C139   1.474       .  S
C88          H91   1.083       .  S
C92          C93   1.392       .  A
C92          C97   1.414       .  A
C93          C94   1.383       .  A
C93          H98   1.086       .  S
C94          C95   1.404       .  A
C94         C214   1.470       .  S
C95          C96   1.409       .  A
C95          H99   1.084       .  S
C96          C97   1.416       .  A
C96         C159   1.489       .  S
C97         H100   1.083       .  S
C101        C102   1.396       .  A
C101        C106   1.411       .  A
C101        C140   1.468       .  S
C102        C103   1.387       .  A
C102        H107   1.086       .  S
C103        C104   1.405       .  A
C103        C209   1.476       .  S
C104        C105   1.408       .  A
C104        H108   1.083       .  S
C105        C106   1.415       .  A
C106        H109   1.083       .  S
C110        C111   1.403       .  A
C110        C115   1.395       .  A
C111        C112   1.408       .  A
C111        H116   1.084       .  S
C112        C113   1.407       .  A
C112        C160   1.471       .  S
C113        C114   1.404       .  A
C113        H117   1.083       .  S
C114        C115   1.385       .  A
C114        C206   1.471       .  S
C115        H118   1.086       .  S
Zn119       O124   1.999       .  S
Zn119       O128   2.036       .  S
Zn119       O135   2.023       .  S
Zn119       O123   1.958       .  S
Zn120       O125   2.016       .  S
Zn120       O127   2.040       .  S
Zn120       O131   1.995       .  S
Zn120       O123   1.964   1_554  S
Zn121       O126   2.007       .  S
Zn121       O129   2.017       .  S
Zn121       O132   2.031       .  S
Zn121       O123   1.959   1_554  S
Zn122       O130   2.006       .  S
Zn122       O133   2.029       .  S
Zn122       O134   2.023       .  S
Zn122       O123   1.964       .  S
O124        C136   1.273       .  A
O125        C137   1.275       .  A
O126        C138   1.273       .  A
O127        C136   1.273   1_554  A
O128        C138   1.274   1_556  A
O129        C137   1.275       .  A
O130        C139   1.273       .  A
O131        C140   1.273   1_554  A
O132        C139   1.273   1_554  A
O133        C140   1.272       .  A
O134        C141   1.276       .  A
O135        C141   1.275       .  A
C137        C176   1.481       .  S
C141        C166   1.484       .  S
Zn142       O147   2.065       .  S
Zn142       O151   2.021       .  S
Zn142       O158   2.013       .  S
Zn142       O146   1.959       .  S
Zn143       O148   2.031       .  S
Zn143       O150   2.013       .  S
Zn143       O154   2.018       .  S
Zn143       O146   1.955       .  S
Zn144       O149   2.016       .  S
Zn144       O152   2.000       .  S
Zn144       O155   2.027       .  S
Zn144       O146   1.970       .  S
Zn145       O153   1.995       .  S
Zn145       O156   2.025       .  S
Zn145       O157   2.041       .  S
Zn145       O146   1.967       .  S
O147        C159   1.277       .  A
O148        C160   1.274       .  A
O149        C161   1.275       .  A
O150        C159   1.273       .  A
O151        C161   1.276       .  A
O152        C160   1.271       .  A
O153        C162   1.272       .  A
O154        C163   1.275       .  A
O155        C162   1.271       .  A
O156        C163   1.276       .  A
O157        C164   1.272       .  A
O158        C164   1.276       .  A
C161        C179   1.481       .  S
C163        C169   1.483       .  S
C165        C166   1.407       .  A
C165        C170   1.400       .  A
C165        H171   1.083       .  S
C166        C167   1.405       .  A
C167        C168   1.397       .  A
C167        H172   1.083       .  S
C168        C169   1.406       .  A
C168        H173   1.083       .  S
C169        C170   1.406       .  A
C170        H174   1.083       .  S
C175        C176   1.405       .  A
C175        C180   1.397       .  A
C175        H181   1.083       .  S
C176        C177   1.406       .  A
C177        C178   1.398       .  A
C177        H182   1.083       .  S
C178        C179   1.406       .  A
C178        H183   1.083       .  S
C179        C180   1.405       .  A
C180        H184   1.083       .  S
C185        C190   1.400       .  A
C185        C626   1.406       .  A
C185        H191   1.083       .  S
C186        C187   1.404   1_545  A
C186        C625   1.407   1_455  A
C187        C188   1.395       .  A
C187        H412   1.083       .  S
C188        C189   1.406   1_565  A
C188        H413   1.083       .  S
C189        C630   1.405   1_455  A
C190        C629   1.406       .  A
C190        H194   1.083       .  S
H192        C407   1.083       .  S
H193        C408   1.083       .  S
C195        C196   1.406       .  A
C195        C200   1.398       .  A
C195        H201   1.083       .  S
C196        C857   1.405   1_545  A
C197        C198   1.398       .  A
C197        C856   1.407       .  A
C197        H202   1.083       .  S
C198        C859   1.406       .  A
C198        H203   1.083       .  S
C199        C200   1.406       .  A
C199        C858   1.406   1_545  A
C200        H204   1.083       .  S
C205        H207   1.088       .  S
C205        C426   1.334       .  D
C206        H208   1.087   1_545  S
C206        C425   1.333       .  D
C209        H211   1.086       .  S
C209        C430   1.336   1_545  D
C210        H212   1.086       .  S
C210        C429   1.336       .  D
C213        H215   1.086       .  S
C213        C654   1.336       .  D
C214        H216   1.087   1_455  S
C214        C653   1.332       .  D
C217        H219   1.086       .  S
C217        C658   1.340   1_556  D
C218        H220   1.086   1_455  S
C218        C657   1.339   1_554  D
C221        C222   1.397       .  A
C221        C226   1.409   1_556  A
C221        C275   1.466   1_556  S
C222        C223   1.389       .  A
C222        H667   1.086       .  S
C223        C224   1.403       .  A
C223        C437   1.474       .  S
C224        C225   1.406       .  A
C224        H228   1.083       .  S
C225        C226   1.411   1_556  A
C225        C356   1.478       .  S
C226        H229   1.083       .  S
H227        C662   1.083   1_456  S
C230        C231   1.412       .  A
C230        C235   1.421       .  A
C230        C298   1.497       .  S
C231        C232   1.407       .  A
C231        H676   1.083       .  S
C232        C233   1.386       .  A
C232        C433   1.477       .  S
C233        C234   1.395       .  A
C233        H237   1.086       .  S
C234        C235   1.417       .  A
C234        C382   1.478       .  S
C235        H238   1.083       .  S
H236        C671   1.086   1_455  S
C239        C240   1.409       .  A
C239        C244   1.413       .  A
C239        C277   1.481       .  S
C240        C241   1.406       .  A
C241        C242   1.388       .  A
C241        C430   1.476       .  S
C242        C243   1.396   1_556  A
C242        H246   1.086   1_556  S
C243        C244   1.408   1_554  A
C243        C358   1.469       .  S
C244        H247   1.083   1_556  S
C248        C249   1.394       .  A
C248        C253   1.412       .  A
C248        C301   1.467       .  S
C249        C250   1.384       .  A
C250        C251   1.403       .  A
C250        C425   1.470   1_565  S
C251        C252   1.408       .  A
C251        H255   1.084       .  S
C252        C253   1.416       .  A
C252        C384   1.485       .  S
C253        H256   1.083       .  S
Zn257       O266   2.018       .  S
Zn257       O273   2.042       .  S
Zn258       O703   2.008   1_455  S
Zn258       O265   2.042       .  S
Zn258       O269   2.033       .  S
Zn258       O261   1.967       .  S
Zn259       O264   2.026       .  S
Zn259       O267   2.027       .  S
Zn259       O701   1.957       .  S
Zn260       O268   2.040       .  S
Zn260       O271   2.010       .  S
Zn260       O712   2.001       .  S
Zn260       O481   1.955   1_564  S
O261       Zn699   1.953   1_454  S
O261       Zn480   1.954   1_455  S
O262        C274   1.271   1_556  A
O263       Zn698   1.985       .  S
O263        C275   1.271       .  A
O264        C716   1.275       .  A
O265        C274   1.274       .  A
O267        C275   1.272   1_556  A
O268        C277   1.275   1_554  A
O269        C278   1.277       .  A
O270        C277   1.274       .  A
O271        C498   1.274   1_565  A
O272       Zn700   2.005   1_455  S
O272        C279   1.273       .  A
O273        C279   1.274   1_556  A
C274        C325   1.470       .  S
C276        C406   1.481       .  S
C276        O704   1.274   1_455  A
C278        C419   1.482       .  S
C278        O491   1.273   1_455  A
C279        C303   1.478       .  S
Zn280       O285   1.994       .  S
Zn280       O296   1.989       .  S
Zn281       O286   2.071       .  S
Zn281       O288   2.039       .  S
Zn281       O724   1.988       .  S
Zn282       O287   2.061       .  S
Zn282       O730   1.987   1_455  S
Zn282       O293   2.005       .  S
Zn282       O284   1.952       .  S
Zn283       O291   2.020       .  S
Zn283       O294   2.021       .  S
Zn283       O735   2.019       .  S
Zn283       O504   1.974   1_565  S
O284       Zn721   1.978   1_455  S
O284       Zn503   1.957   1_455  S
O286        C298   1.278       .  A
O287        C299   1.276       .  A
O288        C737   1.280       .  A
O289        C299   1.271       .  A
O290       Zn722   2.048       .  S
O290        C298   1.278       .  A
O291        C520   1.276   1_565  A
O292        C301   1.274       .  A
O293        C300   1.273       .  A
O294        C301   1.271       .  A
O295       Zn723   1.965   1_455  S
O295        C302   1.269       .  A
O296        C302   1.267       .  A
C297        C409   1.481       .  S
C297        O728   1.276   1_455  A
C299        C330   1.486       .  S
C300        C416   1.481       .  S
C300        O511   1.276   1_455  A
C302        C312   1.448       .  S
C303        C304   1.404       .  A
C303        C308   1.412   1_554  A
C304        C305   1.401       .  A
C304        H309   1.083       .  S
C305        C306   1.391       .  A
C305        C438   1.474       .  S
C306        C307   1.398       .  A
C306        H310   1.085       .  S
C307        C308   1.410   1_554  A
C307        C359   1.471   1_554  S
C308        H311   1.083       .  S
C312        C313   1.391       .  A
C312        C317   1.403       .  A
C313        C314   1.381       .  A
C313        H318   1.086       .  S
C314        C315   1.405       .  A
C314        C434   1.467       .  S
C315        C316   1.411       .  A
C315        H319   1.084       .  S
C316        C317   1.406       .  A
C316        C379   1.475       .  S
C317        H320   1.084       .  S
C321        C322   1.405       .  A
C321        C326   1.413       .  A
C321        C360   1.475       .  S
C322        C323   1.402       .  A
C322        H327   1.083       .  S
C323        C324   1.387       .  A
C323        C429   1.471       .  S
C324        C325   1.397       .  A
C324        H328   1.086   1_554  S
C325        C326   1.408       .  A
C326        H329   1.083       .  S
C330        C331   1.411       .  A
C330        C335   1.414       .  A
C331        C332   1.408       .  A
C331        H336   1.083       .  S
C332        C333   1.394       .  A
C332        C380   1.462       .  S
C333        C334   1.385       .  A
C333        H337   1.086       .  S
C334        C335   1.409       .  A
C334        C426   1.477       .  S
C335        H338   1.083       .  S
Zn339       O344   2.004       .  S
Zn339       O348   2.033       .  S
Zn339       O355   2.024       .  S
Zn339       O343   1.965   1_556  S
Zn340       O345   2.035       .  S
Zn340       O347   2.045       .  S
Zn340       O351   2.019       .  S
Zn340       O343   1.966       .  S
Zn341       O346   1.983       .  S
Zn341       O349   1.998       .  S
Zn341       O352   2.030       .  S
Zn341       O343   1.955       .  S
Zn342       O350   1.995       .  S
Zn342       O353   2.024       .  S
Zn342       O354   2.012       .  S
Zn342       O343   1.954   1_556  S
O344        C356   1.273       .  A
O345        C357   1.277       .  A
O346        C358   1.271       .  A
O347        C356   1.276   1_554  A
O348        C358   1.272   1_556  A
O349        C357   1.273       .  A
O350        C359   1.271       .  A
O351        C360   1.274       .  A
O352        C359   1.271   1_554  A
O353        C360   1.273   1_556  A
O354        C361   1.275       .  A
O355        C361   1.276       .  A
C357        C396   1.482       .  S
C361        C386   1.483       .  S
Zn362       O367   2.049       .  S
Zn362       O371   2.035       .  S
Zn362       O378   2.023       .  S
Zn362       O366   1.964       .  S
Zn363       O368   2.013       .  S
Zn363       O370   1.988       .  S
Zn363       O374   2.009       .  S
Zn363       O366   1.962       .  S
Zn364       O369   2.000       .  S
Zn364       O372   1.983       .  S
Zn364       O375   2.035       .  S
Zn364       O366   1.961       .  S
Zn365       O373   2.018       .  S
Zn365       O376   2.032       .  S
Zn365       O377   2.051       .  S
Zn365       O366   1.961       .  S
O367        C379   1.276       .  A
O368        C380   1.269       .  A
O369        C381   1.273       .  A
O370        C379   1.270       .  A
O371        C381   1.277       .  A
O372        C380   1.271       .  A
O373        C382   1.276       .  A
O374        C383   1.274       .  A
O375        C382   1.271       .  A
O376        C383   1.277       .  A
O377        C384   1.276       .  A
O378        C384   1.276       .  A
C381        C399   1.482       .  S
C383        C389   1.483       .  S
C385        C386   1.406       .  A
C385        C390   1.400       .  A
C385        H391   1.083       .  S
C386        C387   1.405       .  A
C387        C388   1.397       .  A
C387        H392   1.083       .  S
C388        C389   1.406       .  A
C388        H393   1.083       .  S
C389        C390   1.406       .  A
C390        H394   1.083       .  S
C395        C396   1.408       .  A
C395        C400   1.397       .  A
C395        H401   1.083       .  S
C396        C397   1.404       .  A
C397        C398   1.397       .  A
C397        H402   1.083       .  S
C398        C399   1.408       .  A
C398        H403   1.083       .  S
C399        C400   1.404       .  A
C400        H404   1.083       .  S
C405        C846   1.407       .  A
C405        C410   1.401       .  A
C405        H411   1.083       .  S
C406        C845   1.406   1_455  A
C406        C407   1.406       .  A
C407        C408   1.396       .  A
C408        C409   1.405       .  A
C409        C850   1.406   1_455  A
C410        C849   1.407       .  A
C410        H414   1.083       .  S
C415        C416   1.407       .  A
C415        C420   1.398       .  A
C415        H421   1.083       .  S
C416        C637   1.404   1_455  A
C417        C636   1.405   1_565  A
C417        C418   1.397       .  A
C417        H422   1.083       .  S
C418        C639   1.406   1_565  A
C418        H423   1.083       .  S
C419        C638   1.407   1_455  A
C419        C420   1.404       .  A
C420        H424   1.083       .  S
C425        H427   1.087       .  S
C426        H428   1.087       .  S
C429        H431   1.087   1_554  S
C430        H432   1.087   1_556  S
C433        H435   1.086       .  S
C433        C874   1.335       .  D
C434        H436   1.087   1_455  S
C434        C873   1.331       .  D
C437        H439   1.086       .  S
C437        C878   1.338   1_556  D
C438        H440   1.085       .  S
C438        C877   1.340   1_454  D
C441        C442   1.398       .  A
C441        C446   1.415       .  A
C441        C495   1.477   1_556  S
C442        C443   1.389       .  A
C443        C444   1.402       .  A
C443        C657   1.475   1_655  S
C444        C445   1.405       .  A
C444        H448   1.083       .  S
C445        C446   1.417       .  A
C445        C576   1.486       .  S
C446        H449   1.083   1_556  S
C450        C451   1.393       .  A
C450        C455   1.403       .  A
C450        C518   1.457       .  S
C451        C452   1.383       .  A
C452        C453   1.404       .  A
C452        C653   1.469   1_655  S
C453        C454   1.410       .  A
C453        H457   1.083       .  S
C454        C455   1.408       .  A
C454        C602   1.474       .  S
C455        H458   1.084       .  S
C459        C460   1.392       .  A
C459        C464   1.411       .  A
C459        C497   1.465       .  S
C460        C461   1.383       .  A
C460        H685   1.086       .  S
C461        C462   1.407       .  A
C461        C650   1.471       .  S
C462        C463   1.414       .  A
C462        H466   1.084       .  S
C463        C464   1.414       .  A
C463        C578   1.489       .  S
C464        H467   1.083       .  S
H465        C680   1.086   1_545  S
C468        C469   1.414       .  A
C468        C473   1.413       .  A
C468        C521   1.489       .  S
C469        C470   1.410       .  A
C469        H694   1.083       .  S
C470        C471   1.386       .  A
C470        C645   1.479       .  S
C471        C472   1.394       .  A
C471        H475   1.086       .  S
C472        C473   1.410       .  A
C472        C604   1.469       .  S
C473        H476   1.083       .  S
H474        C689   1.086   1_545  S
Zn477       O702   1.989       .  S
Zn477       O486   2.022       .  S
Zn477       O493   2.044       .  S
Zn477       O701   1.951       .  S
Zn478       O485   2.049       .  S
Zn478       O489   2.024       .  S
Zn478       O481   1.971   1_554  S
Zn479       O484   2.008       .  S
Zn479       O487   2.037       .  S
Zn479       O710   1.998   1_545  S
Zn480       O488   2.016       .  S
Zn480       O491   2.000       .  S
O481       Zn697   1.966   1_545  S
O482       Zn697   1.999   1_545  S
O482        C494   1.273       .  A
O483        C495   1.274       .  A
O485        C494   1.274   1_554  A
O486        C716   1.275       .  A
O487        C495   1.272   1_556  A
O488        C497   1.269       .  A
O489        C498   1.276       .  A
O490       Zn699   1.992       .  S
O490        C497   1.273   1_556  A
O492        C499   1.273       .  A
O493        C499   1.275   1_556  A
C494        C545   1.479       .  S
C496        C626   1.484       .  S
C496        O706   1.276   1_545  A
C498        C639   1.481       .  S
C499        C523   1.478       .  S
Zn500       O505   2.025       .  S
Zn500       O729   2.042       .  S
Zn500       O516   2.065       .  S
Zn500       O724   1.980       .  S
Zn501       O506   2.009       .  S
Zn501       O508   2.022       .  S
Zn501       O732   1.969   1_545  S
Zn502       O507   2.026       .  S
Zn502       O513   2.019       .  S
Zn502       O504   1.973       .  S
Zn503       O511   2.028       .  S
Zn503       O514   2.068       .  S
O504       Zn720   1.951   1_545  S
O505        C737   1.278       .  A
O506        C518   1.271       .  A
O507        C519   1.271       .  A
O509       Zn720   1.993   1_545  S
O509        C519   1.274       .  A
O510        C518   1.270       .  A
O512       Zn721   2.021       .  S
O512        C521   1.272       .  A
O513        C520   1.276       .  A
O514        C521   1.278       .  A
O515        C522   1.277       .  A
O516        C522   1.276       .  A
C517        C629   1.484       .  S
C517        O725   1.275   1_545  A
C519        C550   1.470       .  S
C520        C636   1.481       .  S
C522        C532   1.496       .  S
C523        C524   1.403       .  A
C523        C528   1.412       .  A
C524        C525   1.400       .  A
C524        H529   1.083       .  S
C525        C526   1.390       .  A
C525        C658   1.473       .  S
C526        C527   1.398       .  A
C526        H530   1.085       .  S
C527        C528   1.411       .  A
C527        C579   1.470       .  S
C528        H531   1.083   1_554  S
C532        C533   1.410       .  A
C532        C537   1.422       .  A
C533        C534   1.407       .  A
C533        H538   1.083       .  S
C534        C535   1.388       .  A
C534        C654   1.478       .  S
C535        C536   1.397       .  A
C535        H539   1.086       .  S
C536        C537   1.418       .  A
C536        C599   1.484       .  S
C537        H540   1.083       .  S
C541        C542   1.408       .  A
C541        C546   1.417       .  A
C541        C580   1.487       .  S
C542        C543   1.406       .  A
C542        H547   1.082       .  S
C543        C544   1.391   1_554  A
C543        C649   1.481       .  S
C544        C545   1.399       .  A
C544        H548   1.085       .  S
C545        C546   1.412   1_556  A
C546        H549   1.083       .  S
C550        C551   1.413       .  A
C550        C555   1.394       .  A
C551        C552   1.416       .  A
C551        H556   1.083       .  S
C552        C553   1.407       .  A
C552        C600   1.483       .  S
C553        C554   1.403       .  A
C553        H557   1.084       .  S
C554        C555   1.384       .  A
C554        C646   1.468       .  S
C555        H558   1.086       .  S
Zn559       O564   2.028       .  S
Zn559       O568   2.071       .  S
Zn559       O575   2.035       .  S
Zn559       O563   1.968   1_556  S
Zn560       O565   2.027       .  S
Zn560       O567   2.046       .  S
Zn560       O571   2.037       .  S
Zn560       O563   1.976       .  S
Zn561       O566   2.019       .  S
Zn561       O569   2.019       .  S
Zn561       O572   2.030       .  S
Zn561       O563   1.972       .  S
Zn562       O570   1.995       .  S
Zn562       O573   2.044       .  S
Zn562       O574   2.011       .  S
Zn562       O563   1.961   1_556  S
O564        C576   1.277       .  A
O565        C577   1.277       .  A
O566        C578   1.273       .  A
O567        C576   1.275   1_554  A
O568        C578   1.278   1_556  A
O569        C577   1.277       .  A
O570        C579   1.272   1_556  A
O571        C580   1.275       .  A
O572        C579   1.272       .  A
O573        C580   1.273   1_556  A
O574        C581   1.275       .  A
O575        C581   1.278       .  A
C577        C616   1.483       .  S
C581        C606   1.484       .  S
Zn582       O587   2.048       .  S
Zn582       O591   2.011       .  S
Zn582       O598   1.988       .  S
Zn582       O586   1.962       .  S
Zn583       O588   2.052       .  S
Zn583       O590   2.017       .  S
Zn583       O594   2.030       .  S
Zn583       O586   1.958       .  S
Zn584       O589   2.029       .  S
Zn584       O592   2.022       .  S
Zn584       O595   2.037       .  S
Zn584       O586   1.963       .  S
Zn585       O593   1.998       .  S
Zn585       O596   2.016       .  S
Zn585       O597   2.024       .  S
Zn585       O586   1.971       .  S
O587        C599   1.273       .  A
O588        C600   1.276       .  A
O589        C601   1.276       .  A
O590        C599   1.276       .  A
O591        C601   1.275       .  A
O592        C600   1.275       .  A
O593        C602   1.271       .  A
O594        C603   1.277       .  A
O595        C602   1.275       .  A
O596        C603   1.275       .  A
O597        C604   1.271       .  A
O598        C604   1.272       .  A
C601        C619   1.483       .  S
C603        C609   1.484       .  S
C605        C606   1.405       .  A
C605        C610   1.399       .  A
C605        H611   1.083       .  S
C606        C607   1.407       .  A
C607        C608   1.398       .  A
C607        H612   1.083       .  S
C608        C609   1.405       .  A
C608        H613   1.083       .  S
C609        C610   1.407       .  A
C610        H614   1.083       .  S
C615        C616   1.406       .  A
C615        C620   1.397       .  A
C615        H621   1.083       .  S
C616        C617   1.407       .  A
C617        C618   1.399       .  A
C617        H622   1.083       .  S
C618        C619   1.406       .  A
C618        H623   1.083       .  S
C619        C620   1.406       .  A
C620        H624   1.083       .  S
C625        C630   1.398       .  A
C625        H631   1.083       .  S
C626        C627   1.406   1_545  A
C627        C628   1.398       .  A
C627        H852   1.083       .  S
C628        C629   1.406   1_565  A
C628        H853   1.083       .  S
C630        H634   1.083       .  S
H632        C847   1.083       .  S
H633        C848   1.083       .  S
C635        C636   1.406       .  A
C635        C640   1.398       .  A
C635        H641   1.083       .  S
C637        C638   1.397       .  A
C637        H642   1.083       .  S
C638        H643   1.083       .  S
C639        C640   1.405       .  A
C640        H644   1.083       .  S
C645        H647   1.087       .  S
C645        C866   1.334       .  D
C646        H648   1.087   1_545  S
C646        C865   1.333       .  D
C649        H651   1.087   1_544  S
C649        C870   1.339       .  D
C650        H652   1.087       .  S
C650        C869   1.333   1_554  D
C653        H655   1.087       .  S
C654        H656   1.087       .  S
C657        H659   1.085       .  S
C658        H660   1.085       .  S
C661        C662   1.402       .  A
C661        C666   1.411       .  A
C661        C715   1.474       .  S
C662        C663   1.400   1_554  A
C663        C664   1.391       .  A
C663        C877   1.476       .  S
C664        C665   1.401   1_556  A
C664        H668   1.085       .  S
C665        C666   1.410       .  A
C665        C796   1.473       .  S
C666        H669   1.083       .  S
C670        C671   1.392       .  A
C670        C675   1.412       .  A
C670        C738   1.469       .  S
C671        C672   1.381       .  A
C672        C673   1.405       .  A
C672        C873   1.467   1_655  S
C673        C674   1.411       .  A
C673        H677   1.084       .  S
C674        C675   1.415       .  A
C674        C822   1.486       .  S
C675        H678   1.083       .  S
C679        C680   1.398       .  A
C679        C684   1.412       .  A
C679        C717   1.475       .  S
C680        C681   1.390       .  A
C681        C682   1.405       .  A
C681        C870   1.479   1_565  S
C682        C683   1.408       .  A
C682        H686   1.083       .  S
C683        C684   1.417       .  A
C683        C798   1.487       .  S
C684        H687   1.083       .  S
C688        C689   1.393       .  A
C688        C693   1.404       .  A
C688        C741   1.453       .  S
C689        C690   1.384       .  A
C690        C691   1.403       .  A
C690        C865   1.468   1_565  S
C691        C692   1.407       .  A
C691        H695   1.084       .  S
C692        C693   1.407       .  A
C692        C824   1.473       .  S
C693        H696   1.084       .  S
Zn697       O706   2.018       .  S
Zn697       O713   2.046       .  S
Zn698       O705   2.025       .  S
Zn698       O709   2.017       .  S
Zn698       O701   1.963   1_554  S
Zn699       O704   2.022       .  S
Zn699       O707   2.033       .  S
Zn700       O708   2.046       .  S
Zn700       O711   2.011   1_655  S
O702        C714   1.273       .  A
O703        C715   1.274       .  A
O705        C714   1.271   1_554  A
O707        C715   1.274   1_556  A
O708        C717   1.273       .  A
O709        C718   1.274       .  A
O710        C717   1.272   1_556  A
O712        C719   1.273   1_554  A
O713        C719   1.273       .  A
C714        C765   1.471       .  S
C716        C846   1.486       .  S
C718        C859   1.483       .  S
C719        C743   1.479   1_556  S
Zn720       O725   2.018       .  S
Zn720       O736   2.050       .  S
Zn721       O726   2.021       .  S
Zn721       O728   2.023       .  S
Zn722       O727   2.081       .  S
Zn722       O733   2.034       .  S
Zn722       O724   1.986       .  S
Zn723       O731   2.008       .  S
Zn723       O734   2.004       .  S
O726        C738   1.271       .  A
O727        C739   1.278       .  A
O729        C739   1.276       .  A
O730        C738   1.274       .  A
O732        C741   1.270       .  A
O733        C740   1.279       .  A
O734        C741   1.270       .  A
O735        C742   1.272       .  A
O736        C742   1.275       .  A
C737        C849   1.487       .  S
C739        C770   1.500       .  S
C740        C856   1.484       .  S
C742        C752   1.482       .  S
C743        C744   1.398       .  A
C743        C748   1.415   1_554  A
C744        C745   1.389       .  A
C744        H749   1.086       .  S
C745        C746   1.402   1_554  A
C745        C878   1.474       .  S
C746        C747   1.404       .  A
C746        H750   1.083   1_556  S
C747        C748   1.418       .  A
C747        C799   1.484       .  S
C748        H751   1.083       .  S
C752        C753   1.411       .  A
C752        C757   1.411       .  A
C753        C754   1.408       .  A
C753        H758   1.083       .  S
C754        C755   1.387       .  A
C754        C874   1.479       .  S
C755        C756   1.396       .  A
C755        H759   1.086       .  S
C756        C757   1.408       .  A
C756        C819   1.468       .  S
C757        H760   1.083       .  S
C761        C762   1.412       .  A
C761        C766   1.414       .  A
C761        C800   1.488       .  S
C762        C763   1.407       .  A
C762        H767   1.084       .  S
C763        C764   1.384       .  A
C763        C869   1.473       .  S
C764        C765   1.395       .  A
C764        H768   1.086       .  S
C765        C766   1.412       .  A
C766        H769   1.083       .  S
C770        C771   1.421       .  A
C770        C775   1.414       .  A
C771        C772   1.418       .  A
C771        H776   1.083       .  S
C772        C773   1.393       .  A
C772        C820   1.475       .  S
C773        C774   1.384       .  A
C773        H777   1.086       .  S
C774        C775   1.408       .  A
C774        C866   1.478       .  S
C775        H778   1.083       .  S
Zn779       O784   1.983       .  S
Zn779       O788   2.040       .  S
Zn779       O795   2.008       .  S
Zn779       O783   1.961   1_556  S
Zn780       O785   2.024       .  S
Zn780       O787   2.036       .  S
Zn780       O791   2.027       .  S
Zn780       O783   1.980       .  S
Zn781       O786   2.034       .  S
Zn781       O789   2.028       .  S
Zn781       O792   2.047       .  S
Zn781       O783   1.971       .  S
Zn782       O790   2.032       .  S
Zn782       O793   2.065       .  S
Zn782       O794   2.034       .  S
Zn782       O783   1.966   1_556  S
O784        C796   1.271   1_556  A
O785        C797   1.277       .  A
O786        C798   1.275       .  A
O787        C796   1.272       .  A
O788        C798   1.273   1_556  A
O789        C797   1.278       .  A
O790        C799   1.277       .  A
O791        C800   1.274   1_554  A
O792        C799   1.275   1_554  A
O793        C800   1.278       .  A
O794        C801   1.278       .  A
O795        C801   1.274       .  A
C797        C836   1.484       .  S
C801        C826   1.483       .  S
Zn802       O807   2.027       .  S
Zn802       O811   2.010       .  S
Zn802       O818   1.988       .  S
Zn802       O806   1.964       .  S
Zn803       O808   2.029       .  S
Zn803       O810   1.977       .  S
Zn803       O814   1.998       .  S
Zn803       O806   1.957       .  S
Zn804       O809   2.032       .  S
Zn804       O812   2.018       .  S
Zn804       O815   2.055       .  S
Zn804       O806   1.958       .  S
Zn805       O813   2.028       .  S
Zn805       O816   2.043       .  S
Zn805       O817   2.038       .  S
Zn805       O806   1.969       .  S
O807        C819   1.271       .  A
O808        C820   1.271       .  A
O809        C821   1.276       .  A
O810        C819   1.270       .  A
O811        C821   1.274       .  A
O812        C820   1.276       .  A
O813        C822   1.275       .  A
O814        C823   1.273       .  A
O815        C822   1.277       .  A
O816        C823   1.278       .  A
O817        C824   1.275       .  A
O818        C824   1.271       .  A
C821        C839   1.484       .  S
C823        C829   1.483       .  S
C825        C826   1.408       .  A
C825        C830   1.400       .  A
C825        H831   1.083       .  S
C826        C827   1.404       .  A
C827        C828   1.396       .  A
C827        H832   1.083       .  S
C828        C829   1.408       .  A
C828        H833   1.083       .  S
C829        C830   1.405       .  A
C830        H834   1.083       .  S
C835        C836   1.405       .  A
C835        C840   1.397       .  A
C835        H841   1.083       .  S
C836        C837   1.407       .  A
C837        C838   1.400       .  A
C837        H842   1.083       .  S
C838        C839   1.406       .  A
C838        H843   1.083       .  S
C839        C840   1.407       .  A
C840        H844   1.083       .  S
C845        C850   1.399       .  A
C845        H851   1.083       .  S
C846        C847   1.406       .  A
C847        C848   1.398       .  A
C848        C849   1.407       .  A
C850        H854   1.083       .  S
C855        C856   1.406       .  A
C855        C860   1.399       .  A
C855        H861   1.083       .  S
C857        C858   1.396       .  A
C857        H862   1.083   1_455  S
C858        H863   1.083   1_455  S
C859        C860   1.407       .  A
C860        H864   1.083       .  S
C865        H867   1.087       .  S
C866        H868   1.087       .  S
C869        H871   1.088       .  S
C870        H872   1.086       .  S
C873        H875   1.088       .  S
C874        H876   1.087       .  S
C877        H879   1.086       .  S
C878        H880   1.086       .  S
