geometry optimzed in LAMMPS
_audit_creation_date              2020-11-30 
_audit_creation_method            'lammps2cif' 
_symmetry_space_group_name_H-M    'P1' 
_symmetry_Int_Tables_number       1 
_symmetry_cell_setting            triclinic 
loop_ 
_symmetry_equiv_pos_as_xyz 
  x,y,z 
_cell_length_a                    39.08726791 
_cell_length_b                    41.67800704950222 
_cell_length_c                    29.998417704722808 
_cell_angle_alpha                 90.21991343369542 
_cell_angle_beta                  86.8422056800818 
_cell_angle_gamma                 90.64428306379112 
loop_ 
_atom_site_label 
_atom_site_type_symbol 
_atom_site_fract_x 
_atom_site_fract_y 
_atom_site_fract_z 
_atom_site_charge 
C1          C  0.24731945  0.77738851  0.98230047     0.86100
C2          C  0.27943943  0.77620875  0.00953090    -0.54200
C3          C  0.28097671  0.75053898  0.03730372     0.09000
C4          C  0.24968179  0.72728335  0.03484533     0.19900
C5          C  0.24567248  0.74487489  0.95808089    -0.54900
C6          C  0.24747789  0.71827338  0.98438227     0.09100
C7          C  0.21735169  0.77513570  0.01829935    -0.54400
C8          C  0.21815997  0.74891200  0.04577827     0.09700
H9          H  0.29901086  0.79494972  0.00801526     0.14200
H10         H  0.25054785  0.70640221  0.05751164    -0.00100
H11         H  0.24377689  0.74325496  0.92216542     0.14500
H12         H  0.19785603  0.79310119  0.02376491     0.14300
C13         C  0.26286672  0.71706963  0.47338757     0.86100
C14         C  0.23406207  0.71586129  0.51082534    -0.54200
C15         C  0.23478636  0.74052639  0.54115349     0.09000
C16         C  0.26369939  0.76530615  0.52980669     0.19900
C17         C  0.25769595  0.75020088  0.45215137    -0.54900
C18         C  0.25883416  0.77596805  0.48068461     0.09100
C19         C  0.29603955  0.72021980  0.49822909    -0.54400
C20         C  0.29672835  0.74508640  0.52791251     0.09700
H21         H  0.21393668  0.69777208  0.51289872     0.14200
H22         H  0.26415342  0.78519101  0.55433631    -0.00100
H23         H  0.25383300  0.75291617  0.41684462     0.14500
H24         H  0.31656336  0.70290381  0.49439795     0.14300
C25         C  0.75666758  0.27938559  0.98400350     0.86100
C26         C  0.72326844  0.27704500  0.95919605    -0.54200
C27         C  0.72047155  0.25087813  0.93220218     0.09000
C28         C  0.75150296  0.22811703  0.93340145     0.19900
C29         C  0.75910920  0.24729305  0.00923416    -0.54900
C30         C  0.75598522  0.22010723  0.98358546     0.09100
C31         C  0.78539603  0.27605558  0.94671242    -0.54400
C32         C  0.78311652  0.24941749  0.92021237     0.09700
H33         H  0.70464705  0.29622322  0.95988657     0.14200
H34         H  0.74841384  0.20696246  0.91146340    -0.00100
H35         H  0.76669990  0.24561009  0.04318549     0.14500
H36         H  0.80559363  0.29390643  0.94105000     0.14300
C37         C  0.76465638  0.22049002  0.47867449     0.86100
C38         C  0.79476950  0.22256491  0.44302008    -0.54200
C39         C  0.79335207  0.24755759  0.41404638     0.09000
C40         C  0.76238651  0.26982261  0.42469151     0.19900
C41         C  0.76667858  0.25333522  0.50223409    -0.54900
C42         C  0.76502917  0.27955047  0.47475721     0.09100
C43         C  0.73248404  0.22161447  0.45158218    -0.54400
C44         C  0.73057429  0.24724159  0.42357966     0.09700
H45         H  0.81537067  0.20536416  0.43962108     0.14200
H46         H  0.76098781  0.29032630  0.40147780    -0.00100
H47         H  0.77018537  0.25579461  0.53768314     0.14500
H48         H  0.71385239  0.20209087  0.45246350     0.14300
N49         N  0.13230554  0.75154322  0.20953031    -0.03900
C50         C  0.12672431  0.72823801  0.24101551    -0.01300
C51         C  0.12046723  0.74193168  0.28268751    -0.24200
C52         C  0.12214789  0.77438183  0.27708935    -0.24400
C53         C  0.12880715  0.77985630  0.23206594    -0.01400
H54         H  0.11178542  0.72982735  0.31315639     0.12400
H55         H  0.11491661  0.79208639  0.30228283     0.12400
N56         N  0.11444645  0.74657122  0.65374704    -0.03900
C57         C  0.09351811  0.72008921  0.65119655    -0.01300
C58         C  0.06222799  0.72729648  0.63511617    -0.24200
C59         C  0.06237468  0.75938068  0.62856123    -0.24400
C60         C  0.09348831  0.77085343  0.64179562    -0.01400
H61         H  0.04047334  0.71121905  0.63248828     0.12400
H62         H  0.04021149  0.77347763  0.62148489     0.12400
N63         N  0.76800812  0.40678743  0.06760158    -0.03900
C64         C  0.79531862  0.42662240  0.05765400    -0.01300
C65         C  0.78407421  0.45665625  0.04596202    -0.24200
C66         C  0.74928216  0.45635801  0.05301310    -0.24400
C67         C  0.74020093  0.42599923  0.06786822    -0.01400
H68         H  0.79973555  0.47814704  0.04178765     0.12400
H69         H  0.73319311  0.47735198  0.05454296     0.12400
N70         N  0.75935146  0.40868813  0.55168365    -0.03900
C71         C  0.78571709  0.43033655  0.54576604    -0.01300
C72         C  0.77433773  0.45858796  0.52816940    -0.24200
C73         C  0.73970567  0.45544680  0.52611292    -0.24400
C74         C  0.73068117  0.42567978  0.54352618    -0.01400
H75         H  0.78874742  0.48079526  0.52381211     0.12400
H76         H  0.72248582  0.47516883  0.52134309     0.12400
N77         N  0.39176499  0.74262916  0.15878381    -0.03900
C78         C  0.39503282  0.71470895  0.18204542    -0.01300
C79         C  0.40245391  0.72081295  0.22573682    -0.24200
C80         C  0.40548010  0.75313900  0.23005964    -0.24400
C81         C  0.39949132  0.76608408  0.18899510    -0.01400
H82         H  0.40930943  0.70334754  0.25026119     0.12400
H83         H  0.41386144  0.76581932  0.25914707     0.12400
N84         N  0.40190046  0.75391537  0.65577085    -0.03900
C85         C  0.41127503  0.73110442  0.68514666    -0.01300
C86         C  0.42995515  0.74493241  0.71811333    -0.24200
C87         C  0.43291359  0.77690124  0.70864524    -0.24400
C88         C  0.41602292  0.78179856  0.67006461    -0.01400
H89         H  0.44277136  0.73252738  0.74397739     0.12400
H90         H  0.44817290  0.79431672  0.72590315     0.12400
N91         N  0.76442958  0.09258134  0.06274673    -0.03900
C92         C  0.79359102  0.07503631  0.05622492    -0.01300
C93         C  0.78607312  0.04483321  0.04021400    -0.24200
C94         C  0.75121189  0.04265088  0.03932101    -0.24400
C95         C  0.73831419  0.07153382  0.05502592    -0.01400
H96         H  0.80355430  0.02491583  0.03646702     0.12400
H97         H  0.73675860  0.02066757  0.03487751     0.12400
N98         N  0.75786458  0.09898543  0.57835513    -0.03900
C99         C  0.78327509  0.07689525  0.57762232    -0.01300
C100        C  0.77000992  0.04616091  0.57594914    -0.24200
C101        C  0.73527169  0.04900380  0.57746935    -0.24400
C102        C  0.72821532  0.08140960  0.58082326    -0.01400
H103        H  0.78393469  0.02404671  0.57909287     0.12400
H104        H  0.71715004  0.02941701  0.58321689     0.12400
N105        N  0.88193836  0.24866453  0.25238004    -0.03900
C106        C  0.88202090  0.27512257  0.22582603    -0.01300
C107        C  0.87971656  0.26625516  0.18163151    -0.24200
C108        C  0.88108343  0.23354663  0.18007409    -0.24400
C109        C  0.88324994  0.22325044  0.22354668    -0.01400
H110        H  0.88300398  0.28192032  0.15296836     0.12400
H111        H  0.88497750  0.21937412  0.14997218     0.12400
N112        N  0.87330797  0.24716152  0.76175460    -0.03900
C113        C  0.88551909  0.22332429  0.73434511    -0.01300
C114        C  0.89676329  0.23588900  0.69344409    -0.24200
C115        C  0.89146370  0.26827052  0.69560717    -0.24400
C116        C  0.87743923  0.27478806  0.73791622    -0.01400
H117        H  0.91000375  0.22322803  0.66618015     0.12400
H118        H  0.90025101  0.28562096  0.67064192     0.12400
Zr119      Zr  0.02221232  0.95761881  0.28725895     2.17500
O120        O  0.98953065  0.91504600  0.32590949    -0.51800
O121        O  0.07735889  0.95068652  0.31901778    -0.75000
O122        O  0.04941875  0.90818875  0.25828415    -0.81700
O123        O  0.99606228  0.02608042  0.36502089    -0.83500
O124        O  0.05335700  0.91075900  0.18237193    -0.79100
O125        O  0.01282824  0.97385030  0.36496340    -0.90700
O126        O  0.11427421  0.98452894  0.28085330    -0.76700
O127        O  0.06096067  0.96715226  0.22509522    -0.86200
O128        O  0.04274163  0.01139651  0.29366830    -0.85900
O129        O  0.98847495  0.94897294  0.22347001    -0.72600
O130        O  0.97262595  0.99159485  0.28685652    -0.84800
Zr131      Zr  0.99821636  0.04710359  0.16605441     2.26400
Zr132      Zr  0.02778985  0.96040547  0.16184776     2.06300
Zr133      Zr  0.99441176  0.04559332  0.29090339     2.10000
Zr134      Zr  0.08177781  0.02014476  0.23222388     1.78800
O135        O  0.94724684  0.06255517  0.34176023    -0.93600
O136        O  0.12955036  0.00246697  0.18301865    -0.41400
O137        O  0.03340029  0.05586151  0.22862584    -0.78000
O138        O  0.04906463  0.01441757  0.16645978    -0.96700
O139        O  0.97833782  0.99318146  0.15969511    -0.90000
O140        O  0.96034056  0.03697205  0.22905391    -0.92900
C141        C  0.10759643  0.96199656  0.30978812     1.00900
C142        C  0.00415532  0.00033166  0.38441827     1.13800
C143        C  0.05874735  0.89703160  0.21933624     1.04600
O144        O  0.07694556  0.94798558  0.11158284    -0.95000
O145        O  0.02249913  0.97828633  0.08756296    -0.90800
O146        O  0.99920762  0.02814936  0.08899589    -0.83900
C147        C  0.00949596  0.00237012  0.06902948     1.11200
O148        O  0.91086948  0.93700568  0.25485478    -0.97000
Zr149      Zr  0.93975600  0.98402138  0.22202543     1.88900
O150        O  0.94126599  0.05642974  0.14090485    -0.73600
O151        O  0.99274462  0.91831377  0.13023426    -0.52900
O152        O  0.91230085  0.94969784  0.16825077    -0.97600
O153        O  0.89406479  0.99845206  0.27667235    -0.54800
O154        O  0.90560917  0.02074424  0.17779036    -0.74200
C155        C  0.91134239  0.04476290  0.15113828     0.98200
O156        O  0.02871890  0.08904383  0.12323590    -0.63000
O157        O  0.03394291  0.08496493  0.32013886    -0.57800
O158        O  0.97332719  0.09762253  0.19377285    -0.94500
O159        O  0.96909882  0.09570917  0.26966969    -0.92900
O160        O  0.10473569  0.05574267  0.28815962    -0.93200
O161        O  0.11467404  0.06469639  0.19864669    -0.92000
C162        C  0.96364733  0.10909218  0.23235043     1.17000
H163        H  0.05453162  0.01460359  0.32071173     0.33000
H164        H  0.06372318  0.01925179  0.14031016     0.43800
H165        H  0.94074334  0.05079018  0.23116011     0.37400
H166        H  0.98102446  0.92682354  0.22229136     0.33800
H167        H  0.15000549  0.00570208  0.20064356     0.25600
H168        H  0.97544533  0.92991064  0.11377679     0.31600
H169        H  0.91225834  0.96247362  0.14051410     0.37500
H170        H  0.12858558  0.04859270  0.29103141     0.31900
H171        H  0.04102763  0.09876862  0.29441502     0.30800
H172        H  0.95722947  0.07927601  0.36085672     0.32500
H173        H  0.87280035  0.99650814  0.26035180     0.31500
H174        H  0.10090095  0.08396164  0.20622982     0.35500
H175        H  0.04490172  0.09831434  0.14417248     0.28200
H176        H  0.00674405  0.90288248  0.34171977     0.32400
H177        H  0.92521435  0.93078696  0.27954221     0.35300
H178        H  0.01936962  0.09890363  0.33987329     0.27900
H179        H  0.04348551  0.07746811  0.10079862     0.40800
H180        H  0.09330961  0.96594465  0.11537532     0.30800
H181        H  0.12666791  0.97887308  0.18137963     0.38400
H182        H  0.89707233  0.02179434  0.28154004     0.30300
H183        H  0.00792735  0.90846248  0.10658479     0.30300
H184        H  0.98250956  0.90040411  0.30191398     0.30600
Zr185      Zr  0.98934858  0.04615428  0.67614574     2.17500
O186        O  0.02132596  0.09150265  0.64341079    -0.51800
O187        O  0.93391892  0.05464520  0.64737376    -0.75000
O188        O  0.99371830  0.03546220  0.59609920    -0.81700
O189        O  0.95732905  0.08702204  0.78499020    -0.83500
O190        O  0.00718640  0.98269574  0.58834073    -0.79100
O191        O  0.96345511  0.09394859  0.70977170    -0.90700
O192        O  0.89785356  0.01603913  0.67740827    -0.76700
O193        O  0.97085168  0.99305999  0.66053554    -0.86200
O194        O  0.94932782  0.03017016  0.73460835    -0.85900
O195        O  0.04081846  0.01491018  0.67199427    -0.72600
O196        O  0.02108107  0.05020215  0.74236566    -0.84800
Zr197      Zr  0.01219464  0.94777019  0.78164560     2.26400
Zr198      Zr  0.02100390  0.96164582  0.65827685     2.06300
Zr199      Zr  0.98005168  0.03382486  0.80013249     2.10000
Zr200      Zr  0.93100541  0.97735290  0.71845216     1.78800
O201        O  0.00675526  0.07363873  0.84723969    -0.93600
O202        O  0.91152113  0.94823551  0.65375842    -0.41400
O203        O  0.96134600  0.97990364  0.78579942    -0.78000
O204        O  0.98061776  0.94368014  0.71558828    -0.96700
O205        O  0.05219430  0.96354305  0.72349565    -0.90000
O206        O  0.03055917  0.00144035  0.79798675    -0.92900
C207        C  0.90440182  0.04131986  0.65363541     1.00900
C208        C  0.95302468  0.10306784  0.74919591     1.13800
C209        C  0.99854901  0.00969235  0.57299090     1.04600
O210        O  0.99699504  0.91732935  0.61651582    -0.95000
O211        O  0.04665528  0.91183998  0.67379786    -0.90800
O212        O  0.03761246  0.89929278  0.74668833    -0.83900
C213        C  0.04943193  0.89292667  0.70668987     1.11200
O214        O  0.10269001  0.06123441  0.70628964    -0.97000
Zr215      Zr  0.07084969  0.01609642  0.73983403     1.88900
O216        O  0.06737356  0.93734236  0.80884613    -0.73600
O217        O  0.07341822  0.96272248  0.61036400    -0.52900
O218        O  0.12131946  0.00288422  0.69234343    -0.97600
O219        O  0.09353138  0.05113295  0.79656976    -0.54800
O220        O  0.10336568  0.97643839  0.78110920    -0.74200
C221        C  0.09713592  0.95009267  0.80277346     0.98200
O222        O  0.98059856  0.90264133  0.81564435    -0.63000
O223        O  0.92424375  0.03736557  0.84027796    -0.57800
O224        O  0.00483378  0.95680728  0.86118509    -0.94500
O225        O  0.98355452  0.00726015  0.87035137    -0.92900
O226        O  0.88202892  0.98439808  0.77121215    -0.93200
O227        O  0.90139457  0.92833700  0.74349475    -0.92000
C228        C  0.99449373  0.98074233  0.88505888     1.17000
H229        H  0.92953376  0.04374770  0.73742510     0.33000
H230        H  0.97406492  0.92163238  0.71037721     0.43800
H231        H  0.04197381  0.00274194  0.82560950     0.37400
H232        H  0.05585862  0.02216282  0.64727299     0.33800
H233        H  0.92280551  0.92710651  0.65456337     0.25600
H234        H  0.09142099  0.95504896  0.62954353     0.31600
H235        H  0.12245751  0.97917220  0.69287797     0.37500
H236        H  0.87299651  0.00581488  0.76448991     0.31900
H237        H  0.90882658  0.04642021  0.81853301     0.30800
H238        H  0.01203304  0.06224767  0.87489216     0.32500
H239        H  0.10145161  0.03652508  0.81967780     0.31500
H240        H  0.91363133  0.92147094  0.76981973     0.35500
H241        H  0.97487944  0.88865804  0.79030221     0.28200
H242        H  0.04319425  0.08221466  0.63151128     0.32400
H243        H  0.08483834  0.07613756  0.69716391     0.35300
H244        H  0.91634045  0.01484706  0.84406607     0.27900
H245        H  0.99797949  0.89056424  0.83132219     0.40800
H246        H  0.01177236  0.91588296  0.58870366     0.30800
H247        H  0.88692461  0.94357126  0.66077414     0.38400
H248        H  0.07316118  0.06164524  0.81087680     0.30300
H249        H  0.07046760  0.94509334  0.58864292     0.30300
H250        H  0.02778138  0.10458580  0.66932578     0.30600
N251        N  0.24825949  0.90603719  0.40750022    -0.03900
C252        C  0.21916596  0.92332999  0.41774116    -0.01300
C253        C  0.22782508  0.95229333  0.43708154    -0.24200
C254        C  0.26268764  0.95513650  0.43306738    -0.24400
C255        C  0.27463166  0.92734908  0.41298715    -0.01400
H256        H  0.21067960  0.97210294  0.44429768     0.12400
H257        H  0.27716985  0.97710919  0.43745838     0.12400
N258        N  0.24413004  0.87725530  0.84513718    -0.03900
C259        C  0.21555817  0.87457932  0.82092863    -0.01300
C260        C  0.22452786  0.87260533  0.77576020    -0.24200
C261        C  0.25896967  0.87754266  0.77095237    -0.24400
C262        C  0.27025109  0.88145075  0.81335223    -0.01400
H263        H  0.20723614  0.87365207  0.74880718     0.12400
H264        H  0.27362433  0.88152263  0.73973994     0.12400
Zr265      Zr  0.48196859  0.94947765  0.27896016     2.17500
O266        O  0.50404064  0.90097521  0.31141233    -0.51800
O267        O  0.42284493  0.94464478  0.30599846    -0.75000
O268        O  0.47868586  0.95794109  0.36023293    -0.81700
O269        O  0.46758641  0.90960887  0.16514969    -0.83500
O270        O  0.48865870  0.01123969  0.37157598    -0.79100
O271        O  0.45975731  0.90216870  0.24015905    -0.90700
O272        O  0.39315275  0.98506753  0.27595997    -0.76700
O273        O  0.46241093  0.00259936  0.29244873    -0.86200
O274        O  0.45312870  0.96553823  0.21498727    -0.85900
O275        O  0.53257928  0.98150208  0.29047849    -0.72600
O276        O  0.52464182  0.94595920  0.21811326    -0.84800
Zr277      Zr  0.52540883  0.04795418  0.17726267     2.26400
Zr278      Zr  0.51188668  0.03510568  0.30241362     2.06300
Zr279      Zr  0.49498289  0.96225813  0.15417098     2.10000
Zr280      Zr  0.43342735  0.01816454  0.22903488     1.78800
O281        O  0.53130949  0.92266692  0.11563220    -0.93600
O282        O  0.40496771  0.05486458  0.28216599    -0.41400
O283        O  0.47479574  0.01589900  0.16641446    -0.78000
O284        O  0.48296180  0.05205108  0.23830635    -0.96700
O285        O  0.55380792  0.03265621  0.24165538    -0.90000
O286        O  0.54479132  0.99460925  0.16431340    -0.92900
C287        C  0.39513120  0.95998363  0.30073672     1.00900
C288        C  0.45626773  0.89333718  0.19934355     1.13800
C289        C  0.47977411  0.98306312  0.38538713     1.04600
O290        O  0.47586283  0.07729553  0.33515328    -0.95000
O291        O  0.54291815  0.08562714  0.29207285    -0.90800
O292        O  0.55049581  0.09332133  0.21703226    -0.83900
C293        C  0.55455655  0.10164562  0.25792604     1.11200
O294        O  0.60079380  0.93551627  0.26418825    -0.97000
Zr295      Zr  0.57406179  0.98018023  0.22789769     1.88900
O296        O  0.58444051  0.05368432  0.14890111    -0.73600
O297        O  0.55477432  0.03981783  0.35811849    -0.52900
O298        O  0.61445620  0.99589145  0.28322421    -0.97600
O299        O  0.60409570  0.94298719  0.17691552    -0.54800
O300        O  0.61439220  0.01548127  0.18356534    -0.74200
C301        C  0.61247818  0.03963883  0.15693905     0.98200
O302        O  0.50090875  0.09617809  0.14707672    -0.63000
O303        O  0.44960461  0.95897342  0.10181838    -0.57800
O304        O  0.52689227  0.04009198  0.09628394    -0.94500
O305        O  0.51353048  0.98749100  0.08388261    -0.92900
O306        O  0.39026403  0.00095970  0.17819150    -0.93200
O307        O  0.40887458  0.06251108  0.18935831    -0.92000
C308        C  0.52340001  0.01555569  0.07060615     1.17000
H309        H  0.43328654  0.95235045  0.20991252     0.33000
H310        H  0.47602678  0.07415184  0.24185071     0.43800
H311        H  0.56055936  0.99337524  0.13836568     0.37400
H312        H  0.54315362  0.97415330  0.31693804     0.33800
H313        H  0.41440762  0.04965254  0.31120461     0.25600
H314        H  0.54393415  0.05327643  0.38211439     0.31600
H315        H  0.62217038  0.01779856  0.27458650     0.37500
H316        H  0.36808083  0.00431890  0.19502249     0.31900
H317        H  0.45248641  0.93775595  0.08720883     0.30800
H318        H  0.53742447  0.90752313  0.13919200     0.32500
H319        H  0.62666782  0.95325252  0.16964247     0.31500
H320        H  0.42341899  0.06454124  0.16141056     0.35500
H321        H  0.51851222  0.10421457  0.12476319     0.28200
H322        H  0.48479260  0.89264161  0.33106846     0.32400
H323        H  0.58368790  0.92854634  0.28784941     0.35300
H324        H  0.42820968  0.95679604  0.12086783     0.27900
H325        H  0.48199359  0.08824927  0.12918065     0.40800
H326        H  0.48641651  0.08294319  0.36342919     0.30800
H327        H  0.41457157  0.07637204  0.27469316     0.38400
H328        H  0.59203515  0.94407749  0.14882598     0.30300
H329        H  0.55615074  0.01823188  0.37149263     0.30300
H330        H  0.52123093  0.90864963  0.33212444     0.30600
Zr331      Zr  0.44163309  0.98673434  0.68836010     2.17500
O332        O  0.38680850  0.00841950  0.66906722    -0.51800
O333        O  0.43583295  0.93245967  0.66093239    -0.75000
O334        O  0.44488078  0.98667804  0.60570519    -0.81700
O335        O  0.41330461  0.96255756  0.80941844    -0.83500
O336        O  0.49954187  0.00176307  0.58471678    -0.79100
O337        O  0.39790880  0.95895838  0.73730821    -0.90700
O338        O  0.48603855  0.90806136  0.67301971    -0.76700
O339        O  0.49815027  0.97523981  0.65966925    -0.86200
O340        O  0.46841985  0.95578066  0.74289775    -0.85900
O341        O  0.46891050  0.03863754  0.67601177    -0.72600
O342        O  0.44174903  0.02025478  0.75436346    -0.84800
Zr343      Zr  0.55381506  0.02612915  0.76781728     2.26400
Zr344      Zr  0.52559465  0.02586361  0.64809935     2.06300
Zr345      Zr  0.46902055  0.98837073  0.80814483     2.10000
Zr346      Zr  0.52410742  0.94378417  0.71346289     1.78800
O347        O  0.42899234  0.00682018  0.86762000    -0.93600
O348        O  0.56131636  0.92298341  0.65252927    -0.41400
O349        O  0.52571032  0.97522752  0.78065799    -0.78000
O350        O  0.55386553  0.99391247  0.70094967    -0.96700
O351        O  0.52775065  0.05808235  0.71346847    -0.90000
O352        O  0.49746759  0.03882430  0.79654347    -0.92900
C353        C  0.45546172  0.90805327  0.65881813     1.00900
C354        C  0.39330927  0.95305797  0.77951835     1.13800
C355        C  0.46988893  0.99070171  0.57616882     1.04600
O356        O  0.56890798  0.01181541  0.59010270    -0.95000
O357        O  0.57996854  0.05331757  0.64980130    -0.90800
O358        O  0.59990046  0.05074114  0.71916106    -0.83900
C359        C  0.60303411  0.05889859  0.67762796     1.11200
O360        O  0.41849129  0.09199253  0.71878110    -0.97000
Zr361      Zr  0.47213068  0.07069005  0.74303558     1.88900
O362        O  0.56104327  0.07986449  0.79368541    -0.73600
O363        O  0.51262025  0.07284943  0.60413716    -0.52900
O364        O  0.47578390  0.11966049  0.69880955    -0.97600
O365        O  0.43680446  0.08818725  0.80793673    -0.54800
O366        O  0.51421982  0.10786720  0.77572402    -0.74200
C367        C  0.54451934  0.10596619  0.79080379     0.98200
O368        O  0.60772201  0.00415903  0.79017580    -0.63000
O369        O  0.48063217  0.93870020  0.84674182    -0.57800
O370        O  0.55250831  0.02224615  0.85001154    -0.94500
O371        O  0.49927295  0.00377815  0.87272411    -0.92900
O372        O  0.51612442  0.89786919  0.76318932    -0.93200
O373        O  0.57865062  0.92486309  0.73805886    -0.92000
C374        C  0.52899907  0.01499764  0.88035654     1.17000
H375        H  0.45656079  0.93579452  0.74898894     0.33000
H376        H  0.57710216  0.98985189  0.69009916     0.43800
H377        H  0.49790183  0.05159935  0.82423522     0.37400
H378        H  0.45690934  0.05020291  0.65404451     0.33800
H379        H  0.55171116  0.90155684  0.64567838     0.25600
H380        H  0.49145317  0.06721233  0.58905621     0.31600
H381        H  0.50054185  0.12490058  0.69507034     0.37500
H382        H  0.50452366  0.88120734  0.74569323     0.31900
H383        H  0.47004434  0.94168702  0.87721302     0.30800
H384        H  0.43436374  0.02991851  0.87115721     0.32500
H385        H  0.45193410  0.08788444  0.83331871     0.31500
H386        H  0.58350728  0.93871545  0.76392453     0.35500
H387        H  0.62049553  0.99845528  0.76188960     0.28200
H388        H  0.37570982  0.99080273  0.65276082     0.32400
H389        H  0.40583058  0.07297783  0.70817801     0.35300
H390        H  0.46601132  0.92229711  0.83300125     0.27900
H391        H  0.62036391  0.02281282  0.80189196     0.40800
H392        H  0.57617109  0.98997770  0.59791614     0.30800
H393        H  0.55632755  0.93632291  0.62651245     0.38400
H394        H  0.42027264  0.07034286  0.81391253     0.30300
H395        H  0.50553999  0.08944411  0.62631160     0.30300
H396        H  0.39271371  0.02479334  0.64599282     0.30600
N397        N  0.63069530  0.24602522  0.28714772    -0.03900
C398        C  0.62100666  0.27263551  0.26519466    -0.01300
C399        C  0.61020034  0.26462754  0.22356093    -0.24200
C400        C  0.61263287  0.23206159  0.21968734    -0.24400
C401        C  0.62472096  0.22090809  0.25918639    -0.01400
H402        H  0.59820973  0.28038424  0.20059039     0.12400
H403        H  0.60257896  0.21767778  0.19316721     0.12400
N404        N  0.62461062  0.25074914  0.79043800    -0.03900
C405        C  0.61607042  0.22236488  0.77125917    -0.01300
C406        C  0.60953889  0.22642247  0.72698660    -0.24200
C407        C  0.61293753  0.25845516  0.71843790    -0.24400
C408        C  0.62126924  0.27325266  0.75786877    -0.01400
H409        H  0.59949329  0.20852017  0.70480298     0.12400
H410        H  0.60534290  0.27014658  0.68842738     0.12400
Zr411      Zr  0.02217882  0.54359164  0.29907152     2.17500
O412        O  0.99372310  0.58564122  0.34323107    -0.51800
O413        O  0.07892773  0.55027475  0.32529949    -0.75000
O414        O  0.01791579  0.52380247  0.37668094    -0.81700
O415        O  0.05582306  0.59087415  0.19603573    -0.83500
O416        O  0.99028867  0.47570783  0.37688463    -0.79100
O417        O  0.04793069  0.59425240  0.27173866    -0.90700
O418        O  0.11118893  0.50941179  0.29716383    -0.76700
O419        O  0.03504013  0.48859404  0.30733168    -0.86200
O420        O  0.06192637  0.53031419  0.23890371    -0.85900
O421        O  0.96821057  0.51539816  0.29601071    -0.72600
O422        O  0.99343438  0.55410241  0.23165865    -0.84800
Zr423      Zr  0.99545160  0.45563725  0.17674468     2.26400
Zr424      Zr  0.98232376  0.45977654  0.30172017     2.06300
Zr425      Zr  0.03355880  0.53956761  0.17210815     2.10000
Zr426      Zr  0.07595060  0.47593650  0.24921858     1.78800
O427        O  0.00774915  0.58146191  0.12913485    -0.93600
O428        O  0.09041909  0.43947989  0.30856680    -0.41400
O429        O  0.04900405  0.48442009  0.17972727    -0.78000
O430        O  0.02380167  0.44514589  0.24386664    -0.96700
O431        O  0.95458213  0.46904359  0.23503717    -0.90000
O432        O  0.98100497  0.51067726  0.16869325    -0.92900
C433        C  0.10734166  0.53544471  0.32028248     1.00900
C434        C  0.05873338  0.60545980  0.23338160     1.13800
C435        C  0.00517942  0.49865872  0.39676257     1.04600
O436        O  0.00515907  0.41355771  0.33903399    -0.95000
O437        O  0.95511238  0.41083284  0.27750629    -0.90800
O438        O  0.96877638  0.40533105  0.20317521    -0.83900
C439        C  0.95447950  0.39551748  0.24044605     1.11200
O440        O  0.91909240  0.57464844  0.25651744    -0.97000
Zr441      Zr  0.94092091  0.52380659  0.22728562     1.88900
O442        O  0.93959585  0.44990489  0.14774950    -0.73600
O443        O  0.92603582  0.45682517  0.34093903    -0.52900
O444        O  0.89108554  0.51132700  0.27662663    -0.97600
O445        O  0.91732116  0.56041514  0.17388808    -0.54800
O446        O  0.90668276  0.48963985  0.17909892    -0.74200
C447        C  0.91110642  0.46449824  0.15426230     0.98200
O448        O  0.02648000  0.41267306  0.13766587    -0.63000
O449        O  0.08953826  0.54678451  0.13341963    -0.57800
O450        O  0.00195682  0.47115988  0.09869274    -0.94500
O451        O  0.02693755  0.52084630  0.09666845    -0.92900
O452        O  0.12839283  0.48637890  0.20366517    -0.93200
O453        O  0.10422728  0.42838455  0.21832595    -0.92000
C454        C  0.01347220  0.49637837  0.07808319     1.17000
H455        H  0.08244579  0.54331761  0.23841546     0.33000
H456        H  0.02871315  0.42253745  0.24580133     0.43800
H457        H  0.97005889  0.51462861  0.14125869     0.37400
H458        H  0.95313589  0.52193030  0.32098465     0.33800
H459        H  0.07856075  0.44797425  0.33608230     0.25600
H460        H  0.92900740  0.44223260  0.36635465     0.31600
H461        H  0.87161727  0.52082435  0.26175401     0.37500
H462        H  0.14701036  0.48527920  0.22469003     0.31900
H463        H  0.09387811  0.52637890  0.11722151     0.30800
H464        H  0.98979356  0.59068420  0.14975938     0.32500
H465        H  0.89343888  0.55288618  0.17084520     0.31500
H466        H  0.08941089  0.42091948  0.19457853     0.35500
H467        H  0.03416440  0.39867288  0.16170683     0.28200
H468        H  0.00966777  0.59074302  0.36686278     0.32400
H469        H  0.93615765  0.58183911  0.27775207     0.35300
H470        H  0.08568377  0.56263422  0.10972647     0.27900
H471        H  0.00861896  0.39989831  0.12332369     0.40800
H472        H  0.98647767  0.40657025  0.36057530     0.30800
H473        H  0.07799421  0.41925630  0.30239316     0.38400
H474        H  0.92915844  0.55552336  0.14469547     0.30300
H475        H  0.92234466  0.47815895  0.35488063     0.30300
H476        H  0.97401273  0.57473218  0.35910949     0.30600
Zr477      Zr  0.98111532  0.44794032  0.68583586     2.17500
O478        O  0.00859269  0.39873844  0.65950686    -0.51800
O479        O  0.92856748  0.44437770  0.64746402    -0.75000
O480        O  0.94664801  0.40436422  0.71953223    -0.81700
O481        O  0.03802122  0.49286063  0.60591146    -0.83500
O482        O  0.93529877  0.41570124  0.79320615    -0.79100
O483        O  0.99444761  0.45693418  0.60635931    -0.90700
O484        O  0.89888589  0.48974065  0.66586960    -0.76700
O485        O  0.93905787  0.46987312  0.73709165    -0.86200
O486        O  0.97257094  0.50218919  0.66457442    -0.85900
O487        O  0.00471073  0.44354902  0.75797752    -0.72600
O488        O  0.03661690  0.47303484  0.69007151    -0.84800
Zr489      Zr  0.01036922  0.54729195  0.79164744     2.26400
Zr490      Zr  0.96239139  0.46696151  0.80825288     2.06300
Zr491      Zr  0.02694009  0.52742029  0.66936218     2.10000
Zr492      Zr  0.93118428  0.52383379  0.71623537     1.78800
O493        O  0.08008256  0.53796255  0.62525183    -0.93600
O494        O  0.87638818  0.51497230  0.75728724    -0.41400
O495        O  0.98554901  0.55137397  0.72034970    -0.78000
O496        O  0.95442350  0.52210518  0.78885060    -0.96700
O497        O  0.01687070  0.49287112  0.81314253    -0.90000
O498        O  0.05142206  0.52429831  0.73984126    -0.92900
C499        C  0.90257525  0.46262960  0.64543421     1.00900
C500        C  0.01679990  0.47519776  0.58584107     1.13800
C501        C  0.93281535  0.39797144  0.75846196     1.04600
O502        O  0.90402924  0.47198794  0.84035731    -0.95000
O503        O  0.96959875  0.49079186  0.87992994    -0.90800
O504        O  0.00001902  0.53748877  0.87139621    -0.83900
C505        C  0.98523696  0.51518608  0.89527080     1.11200
O506        O  0.08131084  0.41705744  0.75065041    -0.97000
Zr507      Zr  0.05903203  0.47089442  0.76316513     1.88900
O508        O  0.06546328  0.55315678  0.82466959    -0.73600
O509        O  0.97711987  0.42524746  0.86030929    -0.52900
O510        O  0.06874004  0.44161265  0.83136124    -0.97600
O511        O  0.11291518  0.47193094  0.71830100    -0.54800
O512        O  0.09441630  0.50756604  0.80676107    -0.74200
C513        C  0.09220730  0.53563035  0.82517388     0.98200
O514        O  0.98206799  0.59537116  0.82071772    -0.63000
O515        O  0.99666996  0.56112831  0.61865447    -0.57800
O516        O  0.04138419  0.59328947  0.75681802    -0.94500
O517        O  0.05423124  0.57770714  0.68559270    -0.92900
O518        O  0.92127158  0.56056416  0.65539267    -0.93200
O519        O  0.90209439  0.57331624  0.73790078    -0.92000
C520        C  0.05605337  0.59783422  0.71775917     1.17000
H521        H  0.96441259  0.50417988  0.63486568     0.33000
H522        H  0.93882224  0.53219631  0.81046564     0.43800
H523        H  0.07314188  0.53568494  0.73875548     0.37400
H524        H  0.00728943  0.42122051  0.76530436     0.33800
H525        H  0.85899930  0.51855466  0.73508328     0.25600
H526        H  0.99948668  0.43211161  0.87129363     0.31600
H527        H  0.09346310  0.44462554  0.83597235     0.37500
H528        H  0.92061867  0.54691894  0.62836819     0.31900
H529        H  0.98928400  0.57987116  0.63699242     0.30800
H530        H  0.07332429  0.55006568  0.59885530     0.32500
H531        H  0.13012682  0.46390436  0.73842300     0.31500
H532        H  0.91110379  0.57911453  0.76709279     0.35500
H533        H  0.96987908  0.60367831  0.79515644     0.28200
H534        H  0.01286382  0.38677911  0.68708707     0.32400
H535        H  0.07742126  0.41236147  0.71894382     0.35300
H536        H  0.01464452  0.56988875  0.59746847     0.27900
H537        H  0.96357082  0.58738334  0.84182421     0.40800
H538        H  0.90190459  0.49460107  0.85017436     0.30800
H539        H  0.87528205  0.49158033  0.76284508     0.38400
H540        H  0.11865152  0.49499530  0.71457192     0.30300
H541        H  0.96064821  0.42773423  0.88635620     0.30300
H542        H  0.03166250  0.40575878  0.64788714     0.30600
N543        N  0.25692750  0.61425167  0.34039596    -0.03900
C544        C  0.22433086  0.61367792  0.32663760    -0.01300
C545        C  0.22394960  0.62285385  0.28246089    -0.24200
C546        C  0.25732462  0.62497173  0.26672970    -0.24400
C547        C  0.27666435  0.61540075  0.30141019    -0.01400
H548        H  0.20210261  0.62207548  0.26178985     0.12400
H549        H  0.26585022  0.62781441  0.23204621     0.12400
N550        N  0.24419987  0.59167449  0.89835284    -0.03900
C551        C  0.21580517  0.57380705  0.91190762    -0.01300
C552        C  0.22547685  0.54631167  0.93332662    -0.24200
C553        C  0.26011631  0.54412948  0.92648577    -0.24400
C554        C  0.27087913  0.57096452  0.90248614    -0.01400
H555        H  0.20875379  0.52653462  0.94380727     0.12400
H556        H  0.27500254  0.52302299  0.93266454     0.12400
Zr557      Zr  0.56671955  0.47726948  0.26504873     2.17500
O558        O  0.62029502  0.49977102  0.28974507    -0.51800
O559        O  0.57695083  0.42191445  0.28394234    -0.75000
O560        O  0.56300689  0.47720485  0.34717029    -0.81700
O561        O  0.59690034  0.46063193  0.14351796    -0.83500
O562        O  0.50979919  0.49517182  0.36925269    -0.79100
O563        O  0.61444753  0.45845635  0.21442488    -0.90700
O564        O  0.53215063  0.39282316  0.25966843    -0.76700
O565        O  0.51062157  0.46110112  0.29169972    -0.86200
O566        O  0.54288524  0.44696665  0.20675812    -0.85900
O567        O  0.53503527  0.52578446  0.28187277    -0.72600
O568        O  0.56580067  0.51306848  0.20227149    -0.84800
Zr569      Zr  0.45475970  0.51287281  0.18501082     2.26400
Zr570      Zr  0.47787031  0.50855941  0.30556838     2.06300
Zr571      Zr  0.54045039  0.48214916  0.14467880     2.10000
Zr572      Zr  0.48814396  0.42955413  0.23439625     1.78800
O573        O  0.57881964  0.51133135  0.09210011    -0.93600
O574        O  0.46513312  0.40349503  0.30242773    -0.41400
O575        O  0.48469974  0.46374775  0.16995877    -0.78000
O576        O  0.45403691  0.47693545  0.24791693    -0.96700
O577        O  0.47745245  0.54364155  0.24350985    -0.90000
O578        O  0.51032348  0.53062814  0.15938930    -0.92900
C579        C  0.56180690  0.39517216  0.27647831     1.00900
C580        C  0.61890992  0.45377509  0.17188455     1.13800
C581        C  0.53948596  0.48464710  0.37713928     1.04600
O582        O  0.43606143  0.47656830  0.34983219    -0.95000
O583        O  0.42333179  0.53665168  0.30369729    -0.90800
O584        O  0.40814008  0.53408786  0.23193205    -0.83900
C585        C  0.40269886  0.54253556  0.27287326     1.11200
O586        O  0.58606315  0.58533268  0.24152042    -0.97000
Zr587      Zr  0.53304765  0.56068936  0.21846515     1.88900
O588        O  0.44531220  0.56845948  0.16762060    -0.73600
O589        O  0.47580729  0.55273432  0.35912106    -0.52900
O590        O  0.52642733  0.60352009  0.27364064    -0.97600
O591        O  0.56546981  0.58577268  0.15594650    -0.54800
O592        O  0.49029982  0.59748288  0.19171121    -0.74200
C593        C  0.46085718  0.59506092  0.17462073     0.98200
O594        O  0.40177219  0.49147366  0.15709603    -0.63000
O595        O  0.54005600  0.43337794  0.09963981    -0.57800
O596        O  0.45570665  0.51226015  0.10365377    -0.94500
O597        O  0.50794618  0.49310213  0.08016826    -0.92900
O598        O  0.49103877  0.38975504  0.17471097    -0.93200
O599        O  0.43245468  0.40438669  0.22502962    -0.92000
C600        C  0.47831088  0.50421377  0.07307288     1.17000
H601        H  0.55652020  0.42854290  0.19809171     0.33000
H602        H  0.43074535  0.47084452  0.25658661     0.43800
H603        H  0.50966791  0.54378270  0.13300116     0.37400
H604        H  0.54539974  0.53716387  0.30594312     0.33800
H605        H  0.48225119  0.40773807  0.32496603     0.25600
H606        H  0.46332318  0.54391149  0.38605325     0.31600
H607        H  0.51800649  0.59270225  0.30148706     0.37500
H608        H  0.48897920  0.36882406  0.19017134     0.31900
H609        H  0.51559367  0.42904013  0.09472122     0.30800
H610        H  0.57966166  0.49804939  0.06462373     0.32500
H611        H  0.54878223  0.58887782  0.13275771     0.31500
H612        H  0.42117626  0.41857884  0.20403839     0.35500
H613        H  0.39117520  0.47880072  0.18213687     0.28200
H614        H  0.63134597  0.48165857  0.30444064     0.32400
H615        H  0.60340451  0.56830028  0.23737993     0.35300
H616        H  0.55017038  0.43984926  0.06999610     0.27900
H617        H  0.38676759  0.51033773  0.15478179     0.40800
H618        H  0.44766685  0.47071227  0.37711399     0.30800
H619        H  0.44514536  0.41650457  0.31252195     0.38400
H620        H  0.58076587  0.56872228  0.14377659     0.30300
H621        H  0.49961505  0.55599595  0.36796541     0.30300
H622        H  0.61356344  0.51465851  0.31439214     0.30600
Zr623      Zr  0.52278733  0.44839354  0.67308704     2.17500
O624        O  0.49584264  0.40254410  0.63805628    -0.51800
O625        O  0.58140468  0.44149850  0.64612835    -0.75000
O626        O  0.52774532  0.45717947  0.59264687    -0.81700
O627        O  0.53911214  0.40842678  0.78501077    -0.83500
O628        O  0.51412631  0.50933742  0.58220709    -0.79100
O629        O  0.54525055  0.40101864  0.70983845    -0.90700
O630        O  0.61137957  0.48322488  0.67429983    -0.76700
O631        O  0.54289449  0.50183204  0.65970357    -0.86200
O632        O  0.55326409  0.46457360  0.73604094    -0.85900
O633        O  0.47270589  0.48037707  0.66339446    -0.72600
O634        O  0.48096152  0.44429367  0.73469182    -0.84800
Zr635      Zr  0.48261636  0.54627314  0.77811513     2.26400
Zr636      Zr  0.49378480  0.53421146  0.65218457     2.06300
Zr637      Zr  0.51233580  0.46053269  0.79752735     2.10000
Zr638      Zr  0.57333912  0.51742913  0.72216138     1.78800
O639        O  0.47504144  0.42135224  0.83644476    -0.93600
O640        O  0.59961089  0.55515897  0.66818017    -0.41400
O641        O  0.53318711  0.51444733  0.78621018    -0.78000
O642        O  0.52408872  0.55110853  0.71575298    -0.96700
O643        O  0.45296389  0.53142379  0.71416460    -0.90000
O644        O  0.46276246  0.49257243  0.78970505    -0.92900
C645        C  0.60927493  0.45725390  0.65089224     1.00900
C646        C  0.54944926  0.39224463  0.75038399     1.13800
C647        C  0.52477337  0.48189117  0.56770366     1.04600
O648        O  0.53080310  0.57427800  0.61440528    -0.95000
O649        O  0.46534705  0.58532864  0.66600029    -0.90800
O650        O  0.45949737  0.59330159  0.74109661    -0.83900
C651        C  0.45513832  0.60181397  0.70046324     1.11200
O652        O  0.40373350  0.43579219  0.68693495    -0.97000
Zr653      Zr  0.43206931  0.47868927  0.72668301     1.88900
O654        O  0.42361069  0.55128528  0.80698109    -0.73600
O655        O  0.44848628  0.53946825  0.60018246    -0.52900
O656        O  0.39306238  0.49912825  0.67324788    -0.97600
O657        O  0.40131461  0.44015470  0.77533459    -0.54800
O658        O  0.39248797  0.51236788  0.77375467    -0.74200
C659        C  0.39528328  0.53661254  0.80035221     0.98200
O660        O  0.50774874  0.59348261  0.81221846    -0.63000
O661        O  0.55859210  0.45462927  0.84804920    -0.57800
O662        O  0.48086210  0.53679135  0.85874550    -0.94500
O663        O  0.49571973  0.48479601  0.86855927    -0.92900
O664        O  0.62051426  0.50295397  0.76758023    -0.93200
O665        O  0.60027272  0.55977508  0.76463432    -0.92000
C666        C  0.48541981  0.51213435  0.88337397     1.17000
H667        H  0.57306544  0.45148517  0.74034068     0.33000
H668        H  0.53125544  0.57331533  0.71254019     0.43800
H669        H  0.44741806  0.49069165  0.81590554     0.37400
H670        H  0.46163534  0.47305716  0.63717356     0.33800
H671        H  0.58726066  0.57554327  0.67336698     0.25600
H672        H  0.45906041  0.55211198  0.57505793     0.31600
H673        H  0.36997881  0.49674126  0.68823653     0.37500
H674        H  0.60940985  0.49278257  0.79447575     0.31900
H675        H  0.56232712  0.47629814  0.86064559     0.30800
H676        H  0.47190651  0.40395300  0.81444974     0.32500
H677        H  0.39796143  0.45122830  0.80446309     0.31500
H678        H  0.58091250  0.57198053  0.77859946     0.35500
H679        H  0.52361030  0.58485746  0.83371369     0.28200
H680        H  0.48193471  0.39209391  0.66260230     0.32400
H681        H  0.41973245  0.41755990  0.68731652     0.35300
H682        H  0.54842602  0.44187577  0.87334248     0.27900
H683        H  0.52301762  0.60297862  0.78823979     0.40800
H684        H  0.52979260  0.59345498  0.63398280     0.30800
H685        H  0.62283179  0.55947092  0.67859899     0.38400
H686        H  0.41828723  0.42331692  0.78058607     0.30300
H687        H  0.44520868  0.51771027  0.58767335     0.30300
H688        H  0.51479176  0.38747754  0.63096394     0.30600
C689        C  0.54597589  0.48189640  0.42479606    -0.06500
C690        C  0.53842991  0.45270144  0.44649951    -0.17700
C691        C  0.53345278  0.45118538  0.49322756     0.10700
C692        C  0.53485732  0.47978731  0.51897881    -0.06500
C693        C  0.54457825  0.50850522  0.49690618    -0.17700
C694        C  0.55021390  0.50981583  0.45058087     0.10700
S695        S  0.52250063  0.41264219  0.51708443    -0.32700
S696        S  0.56010339  0.54850683  0.42599999    -0.32700
H697        H  0.57618811  0.53681210  0.38623860     0.28700
H698        H  0.55129632  0.41248066  0.54325387     0.28700
H699        H  0.53442864  0.43127780  0.42676335     0.19300
H700        H  0.54691145  0.53057969  0.51575748     0.19300
C701        C  0.47730992  0.51387625  0.93218872    -0.06500
C702        C  0.46266370  0.48641257  0.95317531    -0.17700
C703        C  0.45896747  0.48406542  0.99964555     0.10700
C704        C  0.47117065  0.50920745  0.02608867    -0.06500
C705        C  0.48371857  0.53745726  0.00548933    -0.17700
C706        C  0.48614239  0.54036398  0.95890447     0.10700
S707        S  0.44040283  0.44771489  0.02324364    -0.32700
S708        S  0.50370751  0.57711547  0.93579621    -0.32700
H709        H  0.47444965  0.58330490  0.91203015     0.28700
H710        H  0.42761385  0.46182546  0.06332145     0.28700
H711        H  0.45466247  0.46624984  0.93315779     0.19300
H712        H  0.49321664  0.55681949  0.02581987     0.19300
C713        C  0.36422677  0.54809761  0.82673481    -0.06500
C714        C  0.33781556  0.56349794  0.80539663    -0.17700
C715        C  0.30887403  0.57591065  0.82989987     0.10700
C716        C  0.30505135  0.57110306  0.87670781    -0.06500
C717        C  0.33272545  0.55772220  0.89793452    -0.17700
C718        C  0.36176970  0.54615783  0.87380095     0.10700
S719        S  0.27732412  0.59744009  0.80068069    -0.32700
S720        S  0.39375222  0.52707896  0.90519155    -0.32700
H721        H  0.40185038  0.50319290  0.87327411     0.28700
H722        H  0.29644945  0.60013676  0.75971798     0.28700
H723        H  0.33996323  0.56592729  0.76944521     0.19300
H724        H  0.33068788  0.55421854  0.93377368     0.19300
C725        C  0.30875870  0.59633565  0.29410120    -0.06500
C726        C  0.33450371  0.59935576  0.32479814    -0.17700
C727        C  0.36533799  0.58237369  0.31941284     0.10700
C728        C  0.37031127  0.56038284  0.28353897    -0.06500
C729        C  0.34386062  0.55632268  0.25418609    -0.17700
C730        C  0.31354992  0.57378922  0.25849820     0.10700
S731        S  0.39783724  0.59160398  0.35781623    -0.32700
S732        S  0.28143590  0.56514955  0.21853863    -0.32700
H733        H  0.29717229  0.53861024  0.19720893     0.28700
H734        H  0.42359600  0.59653577  0.32378827     0.28700
H735        H  0.33121594  0.61597028  0.35246280     0.19300
H736        H  0.34706697  0.53926927  0.22704117     0.19300
C737        C  0.12337222  0.54894353  0.84623583    -0.06500
C738        C  0.15549817  0.53847354  0.82920112    -0.17700
C739        C  0.18602976  0.54858247  0.84751880     0.10700
C740        C  0.18510078  0.56972283  0.88466619    -0.06500
C741        C  0.15319468  0.58125405  0.90102583    -0.17700
C742        C  0.12240110  0.57161747  0.88188657     0.10700
S743        S  0.22578763  0.53187106  0.82498446    -0.32700
S744        S  0.08231125  0.58721156  0.90521436    -0.32700
H745        H  0.09610594  0.60723511  0.93769604     0.28700
H746        H  0.21328110  0.51986134  0.78505910     0.28700
H747        H  0.15673666  0.52166155  0.80158072     0.19300
H748        H  0.15241186  0.59695003  0.92989161     0.19300
C749        C  0.13829920  0.55124125  0.33840270    -0.06500
C750        C  0.17072269  0.53861170  0.32663417    -0.17700
C751        C  0.20051653  0.55714679  0.33013925     0.10700
C752        C  0.19801726  0.58982108  0.34270183    -0.06500
C753        C  0.16657548  0.60094664  0.36056539    -0.17700
C754        C  0.13704741  0.58157574  0.36044499     0.10700
S755        S  0.24064476  0.53825076  0.31541113    -0.32700
S756        S  0.09891891  0.59738734  0.38839659    -0.32700
H757        H  0.08812570  0.56712065  0.40463569     0.28700
H758        H  0.25796999  0.55291121  0.35004751     0.28700
H759        H  0.17294487  0.51474732  0.31240303     0.19300
H760        H  0.16478509  0.62526429  0.37325522     0.19300
C761        C  0.00877303  0.49369956  0.44555938    -0.06500
C762        C  0.00195261  0.46256175  0.46287655    -0.17700
C763        C  0.00538072  0.45518892  0.50775869     0.10700
C764        C  0.01634013  0.47925010  0.53688890    -0.06500
C765        C  0.02349571  0.51020011  0.51981829    -0.17700
C766        C  0.01933004  0.51791047  0.47503421     0.10700
S767        S  0.99582838  0.41455551  0.52519455    -0.32700
S768        S  0.02503845  0.55920958  0.45782635    -0.32700
H769        H  0.03820442  0.57108271  0.49743972     0.28700
H770        H  0.02195112  0.41322997  0.55554963     0.28700
H771        H  0.99405662  0.44329145  0.44126637     0.19300
H772        H  0.03086440  0.52903620  0.54232033     0.19300
C773        C  0.98996745  0.51482246  0.94344796    -0.06500
C774        C  0.02319499  0.52076620  0.95709964    -0.17700
C775        C  0.03230673  0.51293555  0.99996953     0.10700
C776        C  0.00751632  0.49940621  0.03046329    -0.06500
C777        C  0.97411793  0.49380101  0.01711568    -0.17700
C778        C  0.96499461  0.50153377  0.97415847     0.10700
S779        S  0.07642420  0.51904561  0.01286074    -0.32700
S780        S  0.92106813  0.49423074  0.96090079    -0.32700
H781        H  0.92013937  0.51852605  0.92857647     0.28700
H782        H  0.07726853  0.49337488  0.04308311     0.28700
H783        H  0.04291712  0.52944955  0.93324410     0.19300
H784        H  0.95462327  0.48449590  0.04087847     0.19300
C785        C  0.56998019  0.36287065  0.75737134    -0.06500
C786        C  0.59986439  0.35836283  0.72998513    -0.17700
C787        C  0.62014787  0.33102568  0.73387094     0.10700
C788        C  0.61030607  0.30702498  0.76534694    -0.06500
C789        C  0.58187370  0.31257267  0.79496115    -0.17700
C790        C  0.56166407  0.34018173  0.79140377     0.10700
S791        S  0.65761804  0.32618635  0.69666252    -0.32700
S792        S  0.52340304  0.34423813  0.82739870    -0.32700
H793        H  0.53095346  0.31978182  0.85741709     0.28700
H794        H  0.65994159  0.35832138  0.68244340     0.28700
H795        H  0.60707136  0.37616168  0.70486390     0.19300
H796        H  0.57366166  0.29386689  0.81825371     0.19300
C797        C  0.61030861  0.30341568  0.28595396    -0.06500
C798        C  0.63054134  0.33067331  0.27651524    -0.17700
C799        C  0.61613414  0.36147623  0.27711960     0.10700
C800        C  0.58021719  0.36490875  0.28602550    -0.06500
C801        C  0.56089330  0.33778855  0.29998504    -0.17700
C802        C  0.57571269  0.30725911  0.30074785     0.10700
S803        S  0.64365043  0.39533872  0.26228047    -0.32700
S804        S  0.54950591  0.27261265  0.31601058    -0.32700
H805        H  0.51935098  0.28942253  0.32794793     0.28700
H806        H  0.67359786  0.37806815  0.25087548     0.28700
H807        H  0.65706000  0.32747230  0.26516107     0.19300
H808        H  0.53374173  0.34031796  0.30824061     0.19300
C809        C  0.56434754  0.13565672  0.80088850    -0.06500
C810        C  0.59985538  0.13541622  0.78942108    -0.17700
C811        C  0.61917408  0.16375843  0.78598365     0.10700
C812        C  0.60317563  0.19328978  0.79489140    -0.06500
C813        C  0.56895058  0.19336552  0.81219974    -0.17700
C814        C  0.54942207  0.16483241  0.81554150     0.10700
S815        S  0.66299748  0.16116153  0.76418334    -0.32700
S816        S  0.50561067  0.16732567  0.83708891    -0.32700
H817        H  0.50451235  0.13630682  0.85550945     0.28700
H818        H  0.67361754  0.19094001  0.78112240     0.28700
H819        H  0.61227682  0.11329066  0.77904188     0.19300
H820        H  0.55646866  0.21605937  0.81926947     0.19300
C821        C  0.57580360  0.13075557  0.26581634    -0.06500
C822        C  0.60661524  0.13450116  0.24000800    -0.17700
C823        C  0.62708256  0.16206641  0.24339796     0.10700
C824        C  0.61645082  0.18728922  0.27235054    -0.06500
C825        C  0.58754900  0.18219659  0.30157180    -0.17700
C826        C  0.56694403  0.15445409  0.29834241     0.10700
S827        S  0.66505142  0.16511756  0.20680419    -0.32700
S828        S  0.52785416  0.15265486  0.33307651    -0.32700
H829        H  0.50778943  0.13932627  0.30002419     0.28700
H830        H  0.68120556  0.18876801  0.23203585     0.28700
H831        H  0.61445645  0.11609633  0.21607789     0.19300
H832        H  0.57860810  0.20153425  0.32330173     0.19300
C833        C  0.46558388  0.98223558  0.52867666    -0.06500
C834        C  0.44449692  0.00126427  0.50348114    -0.17700
C835        C  0.44719125  0.00049180  0.45643602     0.10700
C836        C  0.47105516  0.97990877  0.43402125    -0.06500
C837        C  0.49016849  0.95912294  0.45923778    -0.17700
C838        C  0.48786038  0.96019659  0.50608211     0.10700
S839        S  0.42062851  0.02634874  0.42508583    -0.32700
S840        S  0.51565188  0.93418355  0.53519197    -0.32700
H841        H  0.49506136  0.93262201  0.57506990     0.28700
H842        H  0.40817710  0.04501449  0.46150023     0.28700
H843        H  0.42755187  0.01821053  0.52062789     0.19300
H844        H  0.50854621  0.94329764  0.44237978     0.19300
C845        C  0.53103388  0.01945829  0.02211709    -0.06500
C846        C  0.51323069  0.04263564  0.99928851    -0.17700
C847        C  0.51480652  0.04339744  0.95258675     0.10700
C848        C  0.53482681  0.02074154  0.92784399    -0.06500
C849        C  0.55424886  0.99877036  0.95064562    -0.17700
C850        C  0.55278003  0.99808413  0.99745543     0.10700
S851        S  0.48872750  0.07233043  0.92614874    -0.32700
S852        S  0.57851272  0.96888772  0.02396329    -0.32700
H853        H  0.58532967  0.98853071  0.06073575     0.28700
H854        H  0.51251312  0.07771425  0.88999859     0.28700
H855        H  0.49651572  0.05910534  0.01784682     0.19300
H856        H  0.56921727  0.98100029  0.93198425     0.19300
C857        C  0.36392394  0.93258567  0.79509525    -0.06500
C858        C  0.33767715  0.94558286  0.82308951    -0.17700
C859        C  0.30862406  0.92716847  0.83638934     0.10700
C860        C  0.30473065  0.89566423  0.81960542    -0.06500
C861        C  0.33264239  0.88184307  0.79539240    -0.17700
C862        C  0.36251607  0.89959798  0.78450425     0.10700
S863        S  0.27679697  0.94552259  0.87310917    -0.32700
S864        S  0.39832643  0.87877851  0.75822639    -0.32700
H865        H  0.42283075  0.89473199  0.78300062     0.28700
H866        H  0.27611504  0.91933479  0.90257656     0.28700
H867        H  0.33955990  0.97031652  0.83405297     0.19300
H868        H  0.33054131  0.85741639  0.78321221     0.19300
C869        C  0.30653621  0.92896774  0.38344256    -0.06500
C870        C  0.30317679  0.93552438  0.33795579    -0.17700
C871        C  0.33122945  0.94520482  0.30970758     0.10700
C872        C  0.36408483  0.94816539  0.32702152    -0.06500
C873        C  0.36781802  0.93964178  0.37184612    -0.17700
C874        C  0.33958703  0.93092433  0.40031129     0.10700
S875        S  0.32265588  0.95353012  0.25240649    -0.32700
S876        S  0.34788142  0.92281514  0.45768202    -0.32700
H877        H  0.31817391  0.93709265  0.47665768     0.28700
H878        H  0.35561715  0.94773016  0.23368587     0.28700
H879        H  0.27810937  0.93463142  0.32459375     0.19300
H880        H  0.39286654  0.94133940  0.38557811     0.19300
C881        C  0.12603046  0.93121747  0.81909653    -0.06500
C882        C  0.12320944  0.89743088  0.81814837    -0.17700
C883        C  0.15137535  0.87788832  0.82467848     0.10700
C884        C  0.18343569  0.89210484  0.83186426    -0.06500
C885        C  0.18563760  0.92565251  0.83635288    -0.17700
C886        C  0.15723149  0.94519853  0.83127074     0.10700
S887        S  0.14587900  0.83507094  0.81935527    -0.32700
S888        S  0.16273458  0.98765369  0.84000297    -0.32700
H889        H  0.12913723  0.99220544  0.85789485     0.28700
H890        H  0.17255424  0.82726869  0.84692213     0.28700
H891        H  0.09940764  0.88604974  0.80965240     0.19300
H892        H  0.21018668  0.93693428  0.84114591     0.19300
C893        C  0.13610960  0.94807187  0.33520582    -0.06500
C894        C  0.12947405  0.93965613  0.38044693    -0.17700
C895        C  0.15535504  0.92806273  0.40688732     0.10700
C896        C  0.18921826  0.92482683  0.38853515    -0.06500
C897        C  0.19543581  0.93161435  0.34285406    -0.17700
C898        C  0.16949674  0.94250405  0.31604516     0.10700
S899        S  0.14405380  0.91892195  0.46454588    -0.32700
S900        S  0.18103587  0.94852119  0.25765475    -0.32700
H901        H  0.14888807  0.93990257  0.24232918     0.28700
H902        H  0.17017755  0.89642142  0.46926498     0.28700
H903        H  0.10401470  0.94292517  0.39584561     0.19300
H904        H  0.22108949  0.92950906  0.32804785     0.19300
C905        C  0.99511929  0.01009305  0.52501835    -0.06500
C906        C  0.01437840  0.03259156  0.49985825    -0.17700
C907        C  0.01918117  0.02884479  0.45391529     0.10700
C908        C  0.00362547  0.00246891  0.43273767    -0.06500
C909        C  0.98337035  0.98057423  0.45770017    -0.23300
C910        C  0.97869512  0.98425565  0.50380581     0.10700
S911        S  0.04674263  0.05767338  0.42453579    -0.32700
S912        S  0.95086947  0.95649112  0.53511955    -0.32700
H913        H  0.94841476  0.93349156  0.50096329     0.28700
H914        H  0.06127432  0.03538093  0.39397880     0.28700
H915        H  0.02756211  0.05193182  0.51634920     0.19300
H916        H  0.97043142  0.96127289  0.44087022     0.19300
C917        C  0.99754390  0.97987673  0.93297709    -0.06500
C918        C  0.96891610  0.98906740  0.95989826    -0.17700
C919        C  0.97213140  0.99759513  0.00433764     0.10700
C920        C  0.00495088  0.99820698  0.02163797    -0.06500
C921        C  0.03349197  0.98843748  0.99490345    -0.17700
C922        C  0.03008755  0.97893021  0.95090593     0.10700
S923        S  0.93333457  0.00644857  0.03703322    -0.32700
S924        S  0.06849674  0.96854454  0.91838529    -0.32700
H925        H  0.05494043  0.93935721  0.90317818     0.28700
H926        H  0.94339999  0.99275952  0.07688424     0.28700
H927        H  0.94399949  0.99025551  0.94580402     0.19300
H928        H  0.05856197  0.98786118  0.00866439     0.19300
C929        C  0.88018242  0.30757103  0.75661845    -0.06500
C930        C  0.90536554  0.31288213  0.78753484    -0.17700
C931        C  0.92141500  0.34301825  0.79125916     0.10700
C932        C  0.91229279  0.36815082  0.76306330    -0.06500
C933        C  0.88470660  0.36379156  0.73565827    -0.17700
C934        C  0.86810747  0.33400864  0.73293161     0.10700
S935        S  0.95619031  0.34804483  0.82800035    -0.32700
S936        S  0.83365438  0.33030324  0.69565724    -0.32700
H937        H  0.81870178  0.30302930  0.71654135     0.28700
H938        H  0.95736521  0.31594096  0.84209863     0.28700
H939        H  0.91531235  0.29265655  0.80490868     0.19300
H940        H  0.87691247  0.38338303  0.71497091     0.19300
C941        C  0.89438628  0.19018412  0.74719656    -0.06500
C942        C  0.91725664  0.18580303  0.78124597    -0.17700
C943        C  0.93593620  0.15714073  0.78429651     0.10700
C944        C  0.93215198  0.13271472  0.75203567    -0.06500
C945        C  0.90754967  0.13643572  0.72014332    -0.17700
C946        C  0.88848627  0.16442019  0.71781661     0.10700
S947        S  0.96689409  0.15350743  0.82638683    -0.32700
S948        S  0.85836655  0.16667838  0.67460290    -0.32700
H949        H  0.83536693  0.18619151  0.69954099     0.28700
H950        H  0.95590312  0.18023730  0.85192229     0.28700
H951        H  0.92269392  0.20576428  0.80301109     0.19300
H952        H  0.90347115  0.11744789  0.69616058     0.19300
C953        C  0.90150752  0.30479560  0.23527645    -0.06500
C954        C  0.88433660  0.33155249  0.25322074    -0.17700
C955        C  0.90144932  0.36121732  0.25697289     0.10700
C956        C  0.93601529  0.36437839  0.24074280    -0.06500
C957        C  0.95334145  0.33738394  0.22384682    -0.17700
C958        C  0.93671279  0.30752369  0.22171952     0.10700
S959        S  0.87848894  0.39515807  0.28050800    -0.32700
S960        S  0.96058093  0.27306781  0.20112348    -0.32700
H961        H  0.99268920  0.28851916  0.19537404     0.28700
H962        H  0.84708827  0.37913077  0.29001878     0.28700
H963        H  0.85744400  0.32922350  0.26352637     0.19300
H964        H  0.98000174  0.33980397  0.21237390     0.19300
C965        C  0.89812546  0.19156042  0.23369760    -0.06500
C966        C  0.92578514  0.19083098  0.26173251    -0.17700
C967        C  0.94749429  0.16418405  0.26241048     0.10700
C968        C  0.94186823  0.13791859  0.23381477    -0.06500
C969        C  0.91295497  0.13776104  0.20810504    -0.17700
C970        C  0.89054591  0.16370351  0.20877782     0.10700
S971        S  0.98343628  0.16484549  0.29773112    -0.32700
S972        S  0.85251078  0.15939908  0.17765850    -0.32700
H973        H  0.83314058  0.18218679  0.20236893     0.28700
H974        H  0.98318756  0.19807687  0.30617299     0.28700
H975        H  0.93157271  0.21181647  0.28132808     0.19300
H976        H  0.90739089  0.11692250  0.18791655     0.19300
C977        C  0.69714121  0.09025750  0.60837333    -0.06500
C978        C  0.69717752  0.08334964  0.65427031    -0.17700
C979        C  0.66686331  0.07516708  0.67936990     0.10700
C980        C  0.63531735  0.07460980  0.65820614    -0.06500
C981        C  0.63522693  0.08615748  0.61385075    -0.17700
C982        C  0.66559177  0.09338140  0.58878938     0.10700
S983        S  0.67016592  0.06227106  0.73639833    -0.32700
S984        S  0.66271932  0.10255347  0.53042268    -0.32700
H985        H  0.69520624  0.11712948  0.52450912     0.28700
H986        H  0.70428638  0.07232090  0.74093623     0.28700
H987        H  0.72151844  0.08025394  0.66904017     0.19300
H988        H  0.61145004  0.08740482  0.59705748     0.19300
C989        C  0.87604623  0.05641679  0.63178726    -0.06500
C990        C  0.85082153  0.07208219  0.65839764    -0.17700
C991        C  0.82235758  0.08544589  0.63948628     0.10700
C992        C  0.81810949  0.08180275  0.59324602    -0.06500
C993        C  0.84515884  0.06906320  0.56624021    -0.17700
C994        C  0.87408192  0.05637265  0.58492837     0.10700
S995        S  0.79040814  0.10350574  0.67672627    -0.32700
S996        S  0.90594399  0.03824098  0.54721956    -0.32700
H997        H  0.91902276  0.01660313  0.57752494     0.28700
H998        H  0.78301583  0.12801369  0.64685890     0.28700
H999        H  0.85298067  0.07335942  0.69424086     0.19300
H1000       H  0.84210435  0.06573621  0.53085154     0.19300
C1001       C  0.64432500  0.05175919  0.13235889    -0.06500
C1002       C  0.64390098  0.05610444  0.08585578    -0.17700
C1003       C  0.67356371  0.06520561  0.06008247     0.10700
C1004       C  0.70463051  0.07092767  0.08093270    -0.06500
C1005       C  0.70474058  0.06773599  0.12758870    -0.17700
C1006       C  0.67514060  0.05853002  0.15339175     0.10700
S1007       S  0.67068139  0.06716842  0.00036210    -0.32700
S1008       S  0.67865509  0.05563190  0.21287644    -0.32700
H1009       H  0.64469006  0.06437206  0.22441970     0.28700
H1010       H  0.69843903  0.08854335  0.99249343     0.28700
H1011       H  0.62051883  0.05114008  0.06912696     0.19300
H1012       H  0.72858582  0.07086740  0.14393482     0.19300
C1013       C  0.82455642  0.07910191  0.08244335    -0.06500
C1014       C  0.82112493  0.07311501  0.12854946    -0.17700
C1015       C  0.84931398  0.06394701  0.15253985     0.10700
C1016       C  0.88177344  0.05990774  0.12996639    -0.06500
C1017       C  0.88583443  0.06975960  0.08513993    -0.17700
C1018       C  0.85767596  0.07896967  0.06129268     0.10700
S1019       S  0.84210019  0.05770674  0.21172023    -0.32700
S1020       S  0.86487016  0.08834942  0.00307733    -0.32700
H1021       H  0.84399263  0.11554897  0.00614413     0.28700
H1022       H  0.87497590  0.06799304  0.22278400     0.28700
H1023       H  0.79589291  0.07335779  0.14540924     0.19300
H1024       H  0.91083600  0.06884239  0.06780898     0.19300
C1025       C  0.41246571  0.69580462  0.67861080    -0.06500
C1026       C  0.39940408  0.67679592  0.71424962    -0.17700
C1027       C  0.41154687  0.64577431  0.72124928     0.10700
C1028       C  0.43773894  0.63293561  0.69209666    -0.06500
C1029       C  0.44852313  0.65091566  0.65413049    -0.17700
C1030       C  0.43657795  0.68219731  0.64742245     0.10700
S1031       S  0.39282910  0.62425084  0.76848222    -0.32700
S1032       S  0.45539015  0.70582596  0.60192388    -0.32700
H1033       H  0.48076638  0.68385486  0.58757321     0.28700
H1034       H  0.39288744  0.59469194  0.74575493     0.28700
H1035       H  0.38131526  0.68715157  0.73880215     0.19300
H1036       H  0.46803795  0.64120689  0.63105114     0.19300
C1037       C  0.42135673  0.81188750  0.64461722    -0.06500
C1038       C  0.39658438  0.83584277  0.64886038    -0.17700
C1039       C  0.40618992  0.86850689  0.64595739     0.10700
C1040       C  0.44163338  0.87691629  0.64202518    -0.06500
C1041       C  0.46513873  0.85275365  0.62982837    -0.17700
C1042       C  0.45508895  0.82043531  0.63006506     0.10700
S1043       S  0.37307070  0.89848535  0.65055959    -0.32700
S1044       S  0.48667674  0.78991433  0.61803325    -0.32700
H1045       H  0.51001491  0.81010577  0.59385988     0.28700
H1046       H  0.34646644  0.87798577  0.66692390     0.28700
H1047       H  0.37034475  0.82906041  0.65817147     0.19300
H1048       H  0.49201652  0.85883592  0.62391651     0.19300
C1049       C  0.40680210  0.68364250  0.16330445    -0.06500
C1050       C  0.44156298  0.68189596  0.14867756    -0.17700
C1051       C  0.45915329  0.65282378  0.14813378     0.10700
C1052       C  0.44230436  0.62485216  0.16470550    -0.06500
C1053       C  0.40693086  0.62609550  0.17620695    -0.17700
C1054       C  0.38906544  0.65503481  0.17534777     0.10700
S1055       S  0.50319489  0.65311224  0.12702134    -0.32700
S1056       S  0.34454548  0.65463761  0.19472321    -0.32700
H1057       H  0.33636698  0.68430842  0.17606017     0.28700
H1058       H  0.50162196  0.62206044  0.10862173     0.28700
H1059       H  0.45586619  0.70375350  0.14080817     0.19300
H1060       H  0.39348114  0.60478614  0.18867306     0.19300
C1061       C  0.40718009  0.80074544  0.18060066    -0.06500
C1062       C  0.39337828  0.82264128  0.21221342    -0.17700
C1063       C  0.40784908  0.85317435  0.21770726     0.10700
C1064       C  0.43725645  0.86271085  0.19113138    -0.06500
C1065       C  0.44921974  0.84199142  0.15673440    -0.17700
C1066       C  0.43499080  0.81098024  0.15177917     0.10700
S1067       S  0.38738718  0.87864104  0.25945972    -0.32700
S1068       S  0.45521872  0.78360847  0.11222202    -0.32700
H1069       H  0.48277136  0.80374329  0.09800526     0.28700
H1070       H  0.39368104  0.90669235  0.23454539     0.28700
H1071       H  0.37225776  0.81509021  0.23485582     0.19300
H1072       H  0.47119824  0.84936382  0.13555079     0.19300
C1073       C  0.81835427  0.43036931  0.56944792    -0.06500
C1074       C  0.84729303  0.44510903  0.54779571    -0.17700
C1075       C  0.87517780  0.45581299  0.57154190     0.10700
C1076       C  0.87465647  0.45123736  0.61813308    -0.06500
C1077       C  0.84719224  0.43449377  0.63940459    -0.17700
C1078       C  0.81907376  0.42397098  0.61577837     0.10700
S1079       S  0.90994386  0.47606731  0.54060980    -0.32700
S1080       S  0.78368171  0.40456769  0.64633350    -0.32700
H1081       H  0.79749903  0.40511989  0.68864358     0.28700
H1082       H  0.92023367  0.49586947  0.57549711     0.28700
H1083       H  0.84715327  0.45026541  0.51241613     0.19300
H1084       H  0.84748188  0.43046297  0.67501933     0.19300
C1085       C  0.69961506  0.42533692  0.57426348    -0.06500
C1086       C  0.70252463  0.43883243  0.61692413    -0.17700
C1087       C  0.67367338  0.44776676  0.64358616     0.10700
C1088       C  0.64071516  0.44456973  0.62679013    -0.06500
C1089       C  0.63771650  0.42929216  0.58505795    -0.17700
C1090       C  0.66671386  0.41946623  0.55898592     0.10700
S1091       S  0.68088247  0.46307541  0.69857442    -0.32700
S1092       S  0.66041719  0.40106817  0.50555983    -0.32700
H1093       H  0.69139130  0.38415252  0.50306376     0.28700
H1094       H  0.65161273  0.44817212  0.71903950     0.28700
H1095       H  0.72764988  0.44409791  0.62867685     0.19300
H1096       H  0.61267431  0.42593319  0.57185397     0.19300
C1097       C  0.88157613  0.45080460  0.13145822    -0.06500
C1098       C  0.88665230  0.44065983  0.08677046    -0.17700
C1099       C  0.85934475  0.42915246  0.06262879     0.10700
C1100       C  0.82633206  0.42665752  0.08369076    -0.06500
C1101       C  0.82182781  0.43445778  0.12921533    -0.17700
C1102       C  0.84874832  0.44686777  0.15309886     0.10700
S1103       S  0.86745156  0.42003686  0.00431126    -0.32700
S1104       S  0.83882475  0.45822197  0.21040269    -0.32700
H1105       H  0.87109173  0.45101159  0.22582485     0.28700
H1106       H  0.84121920  0.39678660  0.00262331     0.28700
H1107       H  0.91179403  0.44295697  0.06992721     0.19300
H1108       H  0.79645467  0.43318708  0.14549141     0.19300
C1109       C  0.71049703  0.42251093  0.10009897    -0.06500
C1110       C  0.71294228  0.43664949  0.14249776    -0.17700
C1111       C  0.68365557  0.44589716  0.16815027     0.10700
C1112       C  0.65098107  0.43937323  0.15222758    -0.06500
C1113       C  0.64885139  0.42160513  0.11219143    -0.17700
C1114       C  0.67822178  0.41393014  0.08552515     0.10700
S1115       S  0.68996100  0.46983924  0.21715574    -0.32700
S1116       S  0.67443876  0.39591563  0.03115671    -0.32700
H1117       H  0.63883798  0.39979780  0.02934387     0.28700
H1118       H  0.66891385  0.49481434  0.20372867     0.28700
H1119       H  0.73779598  0.44399947  0.15334504     0.19300
H1120       H  0.62394224  0.41558604  0.10020479     0.19300
C1121       C  0.06725032  0.86221079  0.69501675    -0.06500
C1122       C  0.08162054  0.85928732  0.65083868    -0.17700
C1123       C  0.09311430  0.83018171  0.63341598     0.10700
C1124       C  0.09279310  0.80319880  0.66125366    -0.06500
C1125       C  0.08186589  0.80633667  0.70652109    -0.17700
C1126       C  0.06852314  0.83537605  0.72367558     0.10700
S1127       S  0.10531303  0.82872039  0.57439741    -0.32700
S1128       S  0.05049329  0.83626858  0.78040040    -0.32700
H1129       H  0.06430660  0.80708485  0.79396734     0.28700
H1130       H  0.12205539  0.79910839  0.57380778     0.28700
H1131       H  0.08217201  0.87944363  0.62811910     0.19300
H1132       H  0.08076449  0.78509874  0.72727224     0.19300
C1133       C  0.09773520  0.68841548  0.67146745    -0.06500
C1134       C  0.08874303  0.68495594  0.71722954    -0.17700
C1135       C  0.07793006  0.65513731  0.73510924     0.10700
C1136       C  0.07544584  0.62823762  0.70630514    -0.06500
C1137       C  0.08903267  0.63141053  0.66187296    -0.17700
C1138       C  0.09925036  0.66097843  0.64402345     0.10700
S1139       S  0.06630699  0.65368181  0.79398074    -0.32700
S1140       S  0.11027144  0.66220185  0.58460617    -0.32700
H1141       H  0.11931750  0.69474510  0.58045439     0.28700
H1142       H  0.08383382  0.62489305  0.80053201     0.28700
H1143       H  0.08743008  0.70608624  0.73841704     0.19300
H1144       H  0.08932237  0.61114043  0.63917360     0.19300
C1145       C  0.11806963  0.81072177  0.21334081    -0.06500
C1146       C  0.08618438  0.81135260  0.19384908    -0.17700
C1147       C  0.06663669  0.83952970  0.19430486     0.10700
C1148       C  0.07862850  0.86713065  0.21622667    -0.06500
C1149       C  0.11155852  0.86717360  0.23242307    -0.17700
C1150       C  0.13173054  0.83963849  0.22978642     0.10700
S1151       S  0.02535365  0.83947922  0.17003141    -0.32700
S1152       S  0.17423884  0.84210058  0.24995543    -0.32700
H1153       H  0.18650221  0.81439712  0.22767486     0.28700
H1154       H  0.02559773  0.80719742  0.15616874     0.28700
H1155       H  0.07529547  0.78914929  0.18188477     0.19300
H1156       H  0.12161591  0.88878104  0.24724617     0.19300
C1157       C  0.11624105  0.69450198  0.23235336    -0.06500
C1158       C  0.09230846  0.68883162  0.19990702    -0.17700
C1159       C  0.07310309  0.66009470  0.19935723     0.10700
C1160       C  0.07778989  0.63644617  0.23212594    -0.06500
C1161       C  0.10300558  0.64142230  0.26294253    -0.17700
C1162       C  0.12243214  0.66978970  0.26310693     0.10700
S1163       S  0.04049970  0.65534647  0.15937027    -0.32700
S1164       S  0.15382287  0.67331040  0.30473060    -0.32700
H1165       H  0.17501579  0.69540933  0.28118567     0.28700
H1166       H  0.05027868  0.68204092  0.13287089     0.28700
H1167       H  0.08666999  0.70793005  0.17718451     0.19300
H1168       H  0.10778379  0.62291115  0.28703181     0.19300
C1169       C  0.76097444  0.12961051  0.55518761    -0.06500
C1170       C  0.74565941  0.15719781  0.57398600    -0.17700
C1171       C  0.74571709  0.18663902  0.55064444     0.10700
C1172       C  0.76408641  0.18986133  0.50824903    -0.06500
C1173       C  0.77756047  0.16140353  0.48903594    -0.17700
C1174       C  0.77581156  0.13190067  0.51112557     0.10700
S1175       S  0.71936455  0.21766208  0.57609467    -0.32700
S1176       S  0.78980370  0.09758260  0.47857268    -0.32700
H1177       H  0.76052791  0.07899479  0.49058341     0.28700
H1178       H  0.70557078  0.22764285  0.53628288     0.28700
H1179       H  0.73210500  0.15534609  0.60636964     0.19300
H1180       H  0.78760211  0.16115272  0.45477184     0.19300
C1181       C  0.76266222  0.37590078  0.53463555    -0.06500
C1182       C  0.78189184  0.37011359  0.49423272    -0.17700
C1183       C  0.78330086  0.33950245  0.47385212     0.10700
C1184       C  0.76453684  0.31341904  0.49359832    -0.06500
C1185       C  0.74543051  0.31927306  0.53409004    -0.17700
C1186       C  0.74454258  0.34976528  0.55477778     0.10700
S1187       S  0.81066052  0.33424136  0.42400128    -0.32700
S1188       S  0.72043307  0.35470477  0.60720101    -0.32700
H1189       H  0.71490792  0.32187487  0.61602145     0.28700
H1190       H  0.82065543  0.36654502  0.41817331     0.28700
H1191       H  0.79566131  0.38996245  0.47821498     0.19300
H1192       H  0.73068513  0.29976581  0.54954578     0.19300
C1193       C  0.70332899  0.24934176  0.38996199    -0.06500
C1194       C  0.71326159  0.25737010  0.34567136    -0.17700
C1195       C  0.69024742  0.25556448  0.31140461     0.10700
C1196       C  0.65556109  0.24641055  0.32125268    -0.06500
C1197       C  0.64508042  0.23964987  0.36566674    -0.17700
C1198       C  0.66836077  0.24114282  0.40007089     0.10700
S1199       S  0.70734894  0.26546511  0.25595101    -0.32700
S1200       S  0.65230968  0.23494390  0.45705230    -0.32700
H1201       H  0.61954298  0.22362703  0.44713041     0.28700
H1202       H  0.68430754  0.24729424  0.23194661     0.28700
H1203       H  0.73968101  0.26393047  0.33708042     0.19300
H1204       H  0.61837399  0.23382210  0.37336989     0.19300
C1205       C  0.81615246  0.24843995  0.37228631    -0.06500
C1206       C  0.84709770  0.26605172  0.37080989    -0.17700
C1207       C  0.87040290  0.26498707  0.33315542     0.10700
C1208       C  0.86196086  0.24718760  0.29481595    -0.06500
C1209       C  0.83144201  0.22881521  0.29733990    -0.17700
C1210       C  0.80948611  0.22818766  0.33590658     0.10700
S1211       S  0.91129642  0.28466543  0.33790978    -0.32700
S1212       S  0.77382040  0.20019195  0.33876245    -0.32700
H1213       H  0.78541809  0.18091167  0.30251583     0.28700
H1214       H  0.92893253  0.26653769  0.30466871     0.28700
H1215       H  0.85393570  0.27953588  0.39998023     0.19300
H1216       H  0.82456500  0.21484594  0.26870384     0.19300
C1217       C  0.76353313  0.12490217  0.04455607    -0.06500
C1218       C  0.77597675  0.13036739  0.00024806    -0.17700
C1219       C  0.77566147  0.16095564  0.98039494     0.10700
C1220       C  0.75910762  0.18677724  0.00343648    -0.06500
C1221       C  0.74637823  0.18106451  0.04791265    -0.17700
C1222       C  0.74944873  0.15101927  0.06884070     0.10700
S1223       S  0.79953458  0.16661797  0.92767123    -0.32700
S1224       S  0.73565083  0.14753212  0.12679883    -0.32700
H1225       H  0.75888626  0.12338901  0.13655231     0.28700
H1226       H  0.81446854  0.13607709  0.92471697     0.28700
H1227       H  0.78665619  0.11037032  0.98129887     0.19300
H1228       H  0.73423722  0.20030928  0.06702704     0.19300
C1229       C  0.76595110  0.37491043  0.04792413    -0.06500
C1230       C  0.75789107  0.34819877  0.07494383    -0.17700
C1231       C  0.75319693  0.31711812  0.05660573     0.10700
C1232       C  0.75906182  0.31194141  0.00961191    -0.06500
C1233       C  0.76477692  0.33952726  0.98296747    -0.17700
C1234       C  0.76787528  0.37043814  0.00105573     0.10700
S1235       S  0.73434899  0.28680650  0.09345637    -0.32700
S1236       S  0.77209474  0.40417966  0.96332938    -0.32700
H1237       H  0.77129585  0.38690690  0.92303739     0.28700
H1238       H  0.74082335  0.30224492  0.13396951     0.28700
H1239       H  0.75359166  0.35219821  0.11046603     0.19300
H1240       H  0.76616871  0.33687779  0.94703676     0.19300
C1241       C  0.69487325  0.24997917  0.89660254    -0.06500
C1242       C  0.70470133  0.26291490  0.85470264    -0.17700
C1243       C  0.68251139  0.26278966  0.81946480     0.10700
C1244       C  0.64781214  0.25275243  0.82681207    -0.06500
C1245       C  0.63754329  0.24076157  0.86938615    -0.17700
C1246       C  0.66076052  0.23858654  0.90378003     0.10700
S1247       S  0.70132898  0.27293987  0.76517479    -0.32700
S1248       S  0.64536251  0.22087881  0.95589040    -0.32700
H1249       H  0.67725790  0.20992130  0.96863256     0.28700
H1250       H  0.68580385  0.24716666  0.74327408     0.28700
H1251       H  0.73031240  0.27271242  0.84898892     0.19300
H1252       H  0.61147793  0.23214799  0.87546360     0.19300
C1253       C  0.80770103  0.24362278  0.88082134    -0.06500
C1254       C  0.79458247  0.23698472  0.83917673    -0.17700
C1255       C  0.81546047  0.23807382  0.79963957     0.10700
C1256       C  0.85124684  0.24337773  0.80169179    -0.06500
C1257       C  0.86495809  0.24672424  0.84367293    -0.17700
C1258       C  0.84366519  0.24729374  0.88313598     0.10700
S1259       S  0.79377370  0.23397841  0.74822151    -0.32700
S1260       S  0.86288949  0.25144948  0.93628865    -0.32700
H1261       H  0.89687219  0.25589260  0.91930345     0.28700
H1262       H  0.82077241  0.24205755  0.71772012     0.28700
H1263       H  0.76747897  0.23244733  0.83695709     0.19300
H1264       H  0.89236436  0.24955815  0.84536825     0.19300
C1265       C  0.32449349  0.74866017  0.56000965    -0.06500
C1266       C  0.31546809  0.74815528  0.60592276    -0.17700
C1267       C  0.34046714  0.74945990  0.63775379     0.10700
C1268       C  0.37562436  0.75139413  0.62378422    -0.06500
C1269       C  0.38464545  0.75295481  0.57795534    -0.17700
C1270       C  0.35960716  0.75098362  0.54593148     0.10700
S1271       S  0.32575236  0.74878471  0.69574790    -0.32700
S1272       S  0.37271717  0.75230720  0.48727849    -0.32700
H1273       H  0.40810580  0.75565977  0.49261953     0.28700
H1274       H  0.35180166  0.76872595  0.71115471     0.28700
H1275       H  0.28868156  0.74627028  0.61713652     0.19300
H1276       H  0.41141848  0.75565087  0.56741913     0.19300
C1277       C  0.20981868  0.74255478  0.58105351    -0.06500
C1278       C  0.19714641  0.77236239  0.59576042    -0.17700
C1279       C  0.17066099  0.77430407  0.62935436     0.10700
C1280       C  0.15175294  0.74624432  0.64268002    -0.06500
C1281       C  0.16895152  0.71699211  0.63455665    -0.17700
C1282       C  0.19831464  0.71512761  0.60550728     0.10700
S1283       S  0.16977523  0.81052440  0.66208189    -0.32700
S1284       S  0.22096983  0.67763091  0.60320834    -0.32700
H1285       H  0.25344463  0.69156693  0.59319461     0.28700
H1286       H  0.15572317  0.79546652  0.70095518     0.28700
H1287       H  0.20860210  0.79431371  0.58242223     0.19300
H1288       H  0.15973756  0.69513812  0.65013164     0.19300
C1289       C  0.26446992  0.68858860  0.43980032    -0.06500
C1290       C  0.24845717  0.65872542  0.45048002    -0.17700
C1291       C  0.24885537  0.63281921  0.41993981     0.10700
C1292       C  0.26377915  0.63679896  0.37640704    -0.06500
C1293       C  0.28255685  0.66538487  0.36726995    -0.17700
C1294       C  0.28470082  0.69015742  0.39898044     0.10700
S1295       S  0.23200089  0.59415661  0.43749764    -0.32700
S1296       S  0.31432389  0.72302699  0.38654396    -0.32700
H1297       H  0.33242818  0.70846883  0.35015408     0.28700
H1298       H  0.22553589  0.60193677  0.48281865     0.28700
H1299       H  0.23652621  0.65490562  0.48330679     0.19300
H1300       H  0.29541742  0.66871107  0.33475495     0.19300
C1301       C  0.25569856  0.81019922  0.46381719    -0.06500
C1302       C  0.23408489  0.81641512  0.42855731    -0.17700
C1303       C  0.23238707  0.84691365  0.40841393     0.10700
C1304       C  0.25107239  0.87326990  0.42480417    -0.06500
C1305       C  0.27149329  0.86731185  0.46134485    -0.17700
C1306       C  0.27496624  0.83651499  0.47961426     0.10700
S1307       S  0.20698838  0.85021290  0.36065251    -0.32700
S1308       S  0.30663796  0.83255344  0.52048135    -0.32700
H1309       H  0.32159423  0.80570056  0.49918089     0.28700
H1310       H  0.23004216  0.87145558  0.33799309     0.28700
H1311       H  0.21870200  0.79711065  0.41562071     0.19300
H1312       H  0.28546863  0.88686422  0.47580641     0.19300
C1313       C  0.30906170  0.74814658  0.06927977    -0.06500
C1314       C  0.33885489  0.73123824  0.05665308    -0.17700
C1315       C  0.36700259  0.73013064  0.08395744     0.10700
C1316       C  0.36583604  0.74632747  0.12583135    -0.06500
C1317       C  0.33625080  0.76432892  0.13745769    -0.17700
C1318       C  0.30852903  0.76604457  0.10938567     0.10700
S1319       S  0.40383140  0.70902235  0.06129303    -0.32700
S1320       S  0.27318652  0.79225671  0.12421099    -0.32700
H1321       H  0.28713031  0.80614815  0.16207318     0.28700
H1322       H  0.42744322  0.72764427  0.08344695     0.28700
H1323       H  0.34081548  0.71974437  0.02422037     0.19300
H1324       H  0.33465856  0.77685174  0.16913507     0.19300
C1325       C  0.15267742  0.74769024  0.16791028    -0.06500
C1326       C  0.13811360  0.75233820  0.12672327    -0.17700
C1327       C  0.15823112  0.75087897  0.08607406     0.10700
C1328       C  0.19395703  0.74509805  0.08644516    -0.06500
C1329       C  0.20778617  0.73844127  0.12752487    -0.17700
C1330       C  0.18797560  0.74055056  0.16799242     0.10700
S1331       S  0.13765296  0.75438808  0.03388689    -0.32700
S1332       S  0.20872490  0.73644614  0.21987637    -0.32700
H1333       H  0.24249235  0.73392864  0.20151291     0.28700
H1334       H  0.10466295  0.76119724  0.05235605     0.28700
H1335       H  0.11099672  0.75716642  0.12655909     0.19300
H1336       H  0.23476277  0.73316538  0.12818578     0.19300
C1337       C  0.24659384  0.68487383  0.96373999    -0.06500
C1338       C  0.22536098  0.67896092  0.92779777    -0.17700
C1339       C  0.22580323  0.64973986  0.90375691     0.10700
C1340       C  0.24694093  0.62430794  0.91650554    -0.06500
C1341       C  0.26804524  0.63025901  0.95258445    -0.17700
C1342       C  0.26859445  0.65990703  0.97539167     0.10700
S1343       S  0.19942855  0.64738728  0.85638188    -0.32700
S1344       S  0.29862681  0.66508341  0.01828399    -0.32700
H1345       H  0.32093202  0.64043319  0.00374768     0.28700
H1346       H  0.21449045  0.62016640  0.83662166     0.28700
H1347       H  0.20834610  0.69759148  0.91767645     0.19300
H1348       H  0.28394991  0.61121413  0.96393843     0.19300
C1349       C  0.24859100  0.80604978  0.94922516    -0.06500
C1350       C  0.22504615  0.83151736  0.95327727    -0.17700
C1351       C  0.22500619  0.85671193  0.92210894     0.10700
C1352       C  0.24801668  0.85653492  0.88385033    -0.06500
C1353       C  0.27278453  0.83215609  0.88119353    -0.17700
C1354       C  0.27399489  0.80783032  0.91340947     0.10700
S1355       S  0.19572145  0.88882750  0.93498495    -0.32700
S1356       S  0.30798440  0.77868568  0.90679177    -0.32700
H1357       H  0.32786734  0.79478976  0.87317053     0.28700
H1358       H  0.21678059  0.91267019  0.91494665     0.28700
H1359       H  0.20664445  0.83281563  0.98124070     0.19300
H1360       H  0.29071234  0.83123583  0.85251445     0.19300
loop_ 
_geom_bond_atom_site_label_1 
_geom_bond_atom_site_label_2 
_geom_bond_distance 
_geom_bond_site_symmetry_2 
_ccdc_geom_bond_type 
C1            C2   1.536   1_556  S
C1            C7   1.551   1_556  S
C1            C5   1.538       .  S
C1         C1349   1.554       .  S
C2            H9   1.086       .  S
C2            C3   1.362       .  D
C3            C4   1.557       .  S
C3         C1313   1.501       .  S
C4            C8   1.554       .  S
C4            C6   1.565   1_554  S
C4           H10   1.108       .  S
C5           H11   1.086       .  S
C5            C6   1.368       .  D
C6         C1337   1.522       .  S
C7           H12   1.080       .  S
C7            C8   1.373       .  D
C8         C1328   1.510       .  S
C13          C14   1.546       .  S
C13          C19   1.535       .  S
C13          C17   1.543       .  S
C13        C1289   1.554       .  S
C14          H21   1.083       .  S
C14          C15   1.371       .  D
C15          C16   1.547       .  S
C15        C1277   1.505       .  S
C16          C20   1.548       .  S
C16          C18   1.563       .  S
C16          H22   1.107       .  S
C17          H23   1.085       .  S
C17          C18   1.373       .  D
C18        C1301   1.524       .  S
C19          H24   1.086       .  S
C19          C20   1.365       .  D
C20        C1265   1.496       .  S
C25          C26   1.540       .  S
C25          C31   1.548       .  S
C25          C29   1.546   1_556  S
C25        C1232   1.561   1_556  S
C26          H33   1.086       .  S
C26          C27   1.363       .  D
C27          C28   1.550       .  S
C27        C1241   1.503       .  S
C28          C32   1.548       .  S
C28          C30   1.563       .  S
C28          H34   1.108       .  S
C29          H35   1.079       .  S
C29          C30   1.375   1_554  D
C30        C1220   1.522   1_556  S
C31          H36   1.086       .  S
C31          C32   1.368       .  D
C32        C1253   1.502       .  S
C37          C38   1.548       .  S
C37          C43   1.536       .  S
C37          C41   1.541       .  S
C37        C1172   1.557       .  S
C38          H45   1.084       .  S
C38          C39   1.363       .  D
C39          C40   1.552       .  S
C39        C1205   1.497       .  S
C40          C44   1.553       .  S
C40          C42   1.563       .  S
C40          H46   1.108       .  S
C41          H47   1.084       .  S
C41          C42   1.375       .  D
C42        C1184   1.518       .  S
C43          H48   1.085       .  S
C43          C44   1.367       .  D
C44        C1193   1.510       .  S
N49          C53   1.362       .  A
N49          C50   1.365       .  A
N49        C1325   1.453       .  S
C50          C51   1.383       .  A
C50        C1157   1.486       .  S
C51          C52   1.364       .  A
C51          H54   1.082       .  S
C52          C53   1.381       .  A
C52          H55   1.083       .  S
C53        C1145   1.480       .  S
N56          C60   1.370       .  A
N56          C57   1.371       .  A
N56        C1280   1.478       .  S
C57          C58   1.376       .  A
C57        C1133   1.470       .  S
C58          C59   1.352       .  A
C58          H61   1.083       .  S
C59          C60   1.380       .  A
C59          H62   1.083       .  S
C60        C1124   1.467       .  S
N63          C67   1.357       .  A
N63          C64   1.363       .  A
N63        C1229   1.455       .  S
C64          C65   1.384       .  A
C64        C1100   1.478       .  S
C65          C66   1.365       .  A
C65          H68   1.083       .  S
C66          C67   1.379       .  A
C66          H69   1.083       .  S
C67        C1109   1.476       .  S
N70          C74   1.366       .  A
N70          C71   1.367       .  A
N70        C1181   1.462       .  S
C71          C72   1.380       .  A
C71        C1073   1.494       .  S
C72          C73   1.363       .  A
C72          H75   1.083       .  S
C73          C74   1.382       .  A
C73          H76   1.083       .  S
C74        C1085   1.484       .  S
N77          C81   1.373       .  A
N77          C78   1.370       .  A
N77        C1316   1.464       .  S
C78          C79   1.380       .  A
C78        C1049   1.478       .  S
C79          C80   1.357       .  A
C79          H82   1.083       .  S
C80          C81   1.380       .  A
C80          H83   1.083       .  S
C81        C1061   1.492       .  S
N84          C88   1.359       .  A
N84          C85   1.365       .  A
N84        C1268   1.446       .  S
C85          C86   1.382       .  A
C85        C1025   1.484       .  S
C86          C87   1.366       .  A
C86          H89   1.083       .  S
C87          C88   1.381       .  A
C87          H90   1.083       .  S
C88        C1037   1.477       .  S
N91          C95   1.367       .  A
N91          C92   1.366       .  A
N91        C1217   1.457       .  S
C92          C93   1.380       .  A
C92        C1013   1.487       .  S
C93          C94   1.366       .  A
C93          H96   1.083       .  S
C94          C95   1.381       .  A
C94          H97   1.083       .  S
C95        C1004   1.492       .  S
N98         C102   1.363       .  A
N98          C99   1.361       .  A
N98        C1169   1.456       .  S
C99         C100   1.378       .  A
C99         C992   1.476       .  S
C100        C101   1.363       .  A
C100        H103   1.083       .  S
C101        C102   1.384       .  A
C101        H104   1.083       .  S
C102        C977   1.480       .  S
N105        C109   1.365       .  A
N105        C106   1.363       .  A
N105       C1208   1.457       .  S
C106        C107   1.382       .  A
C106        C953   1.480       .  S
C107        C108   1.365       .  A
C107        H110   1.083       .  S
C108        C109   1.382       .  A
C108        H111   1.082       .  S
C109        C965   1.488       .  S
N112        C116   1.361       .  A
N112        C113   1.361       .  A
N112       C1256   1.445       .  S
C113        C114   1.383       .  A
C113        C941   1.485       .  S
C114        C115   1.368       .  A
C114        H117   1.082       .  S
C115        C116   1.382       .  A
C115        H118   1.083       .  S
C116        C929   1.480       .  S
Zr119       O120   2.434   1_455  S
Zr119       O121   2.425       .  S
Zr119       O122   2.463       .  S
Zr119       O125   2.434       .  S
Zr119       O127   2.369       .  S
Zr119       O128   2.383   1_565  S
Zr119       O129   2.407   1_455  S
Zr119       O130   2.414   1_455  S
O120        H176   0.990   1_655  S
O120        H184   0.990       .  S
O121        C141   1.284       .  A
O122        C143   1.291       .  A
O123       Zr133   2.375       .  S
O123        C142   1.274   1_655  A
O124       Zr132   2.405       .  S
O124        C143   1.279       .  A
O125        C142   1.287   1_565  A
O126       Zr134   2.492   1_565  S
O126        C141   1.296       .  A
O127       Zr132   2.370       .  S
O127       Zr134   2.358   1_565  S
O128       Zr133   2.384   1_455  S
O128       Zr134   2.354       .  S
O128        H163   0.963       .  S
O129       Zr132   2.384   1_655  S
O129       Zr149   2.415       .  S
O129        H166   0.966       .  S
O130       Zr133   2.402   1_565  S
O130       Zr149   2.407       .  S
Zr131       O156   2.435   1_655  S
Zr131       O150   2.425       .  S
Zr131       O158   2.452       .  S
Zr131       O146   2.438       .  S
Zr131       O137   2.412   1_655  S
Zr131       O138   2.423   1_655  S
Zr131       O139   2.380   1_545  S
Zr131       O140   2.372       .  S
Zr132       O151   2.435   1_455  S
Zr132       O144   2.435       .  S
Zr132       O145   2.373       .  S
Zr132       O138   2.397   1_565  S
Zr132       O139   2.383   1_455  S
Zr133       O135   2.437       .  S
Zr133       O157   2.435   1_655  S
Zr133       O159   2.424       .  S
Zr133       O137   2.382   1_655  S
Zr133       O140   2.367       .  S
Zr134       O160   2.437       .  S
Zr134       O161   2.436       .  S
Zr134       O136   2.435       .  S
Zr134       O137   2.427       .  S
Zr134       O138   2.419       .  S
O135        H172   0.991       .  S
O136        H167   0.990       .  S
O136        H181   0.990   1_545  S
O138        H164   0.966       .  S
O139       Zr149   2.366       .  S
O140       Zr149   2.353   1_545  S
O140        H165   0.963       .  S
C141        C893   1.507       .  S
C142        C908   1.451       .  S
C143       C1148   1.476       .  S
O144        H180   0.989       .  S
O145        C147   1.274   1_565  A
O146        C147   1.286   1_655  A
C147        C920   1.452   1_545  S
O148       Zr149   2.435       .  S
O148        H177   0.990       .  S
Zr149       O152   2.437       .  S
Zr149       O153   2.436       .  S
Zr149       O154   2.478   1_565  S
O150        C155   1.284       .  A
O151        H168   0.990       .  S
O151        H183   0.990   1_655  S
O152        H169   0.990       .  S
O153        H173   0.990       .  S
O153        H182   0.990   1_565  S
O154        C155   1.293       .  A
C155       C1016   1.496       .  S
O156        H175   0.990       .  S
O156        H179   0.990       .  S
O157        H171   0.990       .  S
O157        H178   0.990       .  S
O158        C162   1.289       .  A
O159        C162   1.282       .  A
O160        H170   0.990       .  S
O161        H174   0.991       .  S
C162        C968   1.479       .  S
Zr185       O186   2.434   1_655  S
Zr185       O187   2.406       .  S
Zr185       O188   2.438       .  S
Zr185       O191   2.435       .  S
Zr185       O193   2.373   1_545  S
Zr185       O194   2.377       .  S
Zr185       O195   2.406   1_655  S
Zr185       O196   2.404   1_655  S
O186        H242   0.990       .  S
O186        H250   0.990       .  S
O187        C207   1.280       .  A
O188        C209   1.286       .  A
O189       Zr199   2.451       .  S
O189        C208   1.287       .  A
O190       Zr198   2.369       .  S
O190        C209   1.273   1_465  A
O191        C208   1.287       .  A
O192       Zr200   2.456   1_545  S
O192        C207   1.290       .  A
O193       Zr198   2.367   1_655  S
O193       Zr200   2.358       .  S
O194       Zr199   2.363       .  S
O194       Zr200   2.364   1_545  S
O194        H229   0.963       .  S
O195       Zr198   2.385   1_545  S
O195       Zr215   2.405       .  S
O195        H232   0.968       .  S
O196       Zr199   2.391   1_455  S
O196       Zr215   2.420       .  S
Zr197       O222   2.435   1_455  S
Zr197       O216   2.393       .  S
Zr197       O224   2.416       .  S
Zr197       O212   2.466       .  S
Zr197       O203   2.406   1_455  S
Zr197       O204   2.396   1_455  S
Zr197       O205   2.367       .  S
Zr197       O206   2.399   1_565  S
Zr198       O217   2.437       .  S
Zr198       O210   2.436   1_455  S
Zr198       O211   2.374       .  S
Zr198       O204   2.386   1_455  S
Zr198       O205   2.362       .  S
Zr199       O201   2.438   1_655  S
Zr199       O223   2.439       .  S
Zr199       O225   2.395       .  S
Zr199       O203   2.400   1_545  S
Zr199       O206   2.402   1_655  S
Zr200       O226   2.435       .  S
Zr200       O227   2.437       .  S
Zr200       O202   2.438       .  S
Zr200       O203   2.400       .  S
Zr200       O204   2.404       .  S
O201        H238   0.990       .  S
O202        H233   0.990       .  S
O202        H247   0.990       .  S
O204        H230   0.966       .  S
O205       Zr215   2.359   1_565  S
O206       Zr215   2.362       .  S
O206        H231   0.964       .  S
C207        C989   1.467       .  S
C208        C944   1.488       .  S
C209        C905   1.453       .  S
O210        H246   0.990   1_655  S
O211        C213   1.275       .  A
O212        C213   1.290       .  A
C213       C1121   1.495       .  S
O214       Zr215   2.434       .  S
O214        H243   0.990       .  S
Zr215       O218   2.436       .  S
Zr215       O219   2.436       .  S
Zr215       O220   2.473   1_545  S
O216        C221   1.278       .  A
O217        H234   0.990       .  S
O217        H249   0.990       .  S
O218        H235   0.990   1_545  S
O219        H239   0.989       .  S
O219        H248   0.989       .  S
O220        C221   1.292       .  A
C221        C881   1.489       .  S
O222        H241   0.990       .  S
O222        H245   0.990       .  S
O223        H237   0.991       .  S
O223        H244   0.990       .  S
O224        C228   1.282   1_455  A
O225        C228   1.278   1_545  A
O226        H236   0.989   1_565  S
O227        H240   0.990       .  S
C228        C917   1.450       .  S
N251        C255   1.370       .  A
N251        C252   1.373       .  A
N251       C1304   1.470       .  S
C252        C253   1.384       .  A
C252        C896   1.502       .  S
C253        C254   1.365       .  A
C253        H256   1.083       .  S
C254        C255   1.378       .  A
C254        H257   1.083       .  S
C255        C869   1.491       .  S
N258        C262   1.368       .  A
N258        C259   1.369       .  A
N258       C1352   1.465       .  S
C259        C260   1.383       .  A
C259        C884   1.480       .  S
C260        C261   1.359       .  A
C260        H263   1.083       .  S
C261        C262   1.377       .  A
C261        H264   1.083       .  S
C262        C860   1.487       .  S
Zr265       O266   2.434       .  S
Zr265       O267   2.413       .  S
Zr265       O268   2.459       .  S
Zr265       O271   2.460       .  S
Zr265       O273   2.376   1_565  S
Zr265       O274   2.381       .  S
Zr265       O275   2.414       .  S
Zr265       O276   2.409       .  S
O266        H322   0.991       .  S
O266        H330   0.990       .  S
O267        C287   1.281       .  A
O268        C289   1.290       .  A
O269       Zr279   2.446       .  S
O269        C288   1.287       .  A
O270       Zr278   2.430       .  S
O270        C289   1.285   1_545  A
O271        C288   1.291       .  A
O272       Zr280   2.467   1_565  S
O272        C287   1.291       .  A
O273       Zr278   2.380       .  S
O273       Zr280   2.364       .  S
O274       Zr279   2.387       .  S
O274       Zr280   2.361   1_565  S
O274        H309   0.964       .  S
O275       Zr278   2.403   1_565  S
O275       Zr295   2.413       .  S
O275        H312   0.967       .  S
O276       Zr279   2.399       .  S
O276       Zr295   2.418       .  S
Zr277       O302   2.435       .  S
Zr277       O296   2.424       .  S
Zr277       O304   2.448       .  S
Zr277       O292   2.456       .  S
Zr277       O283   2.411       .  S
Zr277       O284   2.409       .  S
Zr277       O285   2.373       .  S
Zr277       O286   2.381   1_545  S
Zr278       O297   2.437       .  S
Zr278       O290   2.435       .  S
Zr278       O291   2.430       .  S
Zr278       O284   2.397       .  S
Zr278       O285   2.386       .  S
Zr279       O281   2.436       .  S
Zr279       O303   2.435       .  S
Zr279       O305   2.431       .  S
Zr279       O283   2.399   1_565  S
Zr279       O286   2.388       .  S
Zr280       O306   2.436       .  S
Zr280       O307   2.436       .  S
Zr280       O282   2.438       .  S
Zr280       O283   2.412       .  S
Zr280       O284   2.412       .  S
O281        H318   0.990       .  S
O282        H313   0.990       .  S
O282        H327   0.990       .  S
O284        H310   0.967       .  S
O285       Zr295   2.361   1_545  S
O286       Zr295   2.361       .  S
O286        H311   0.967       .  S
C287        C872   1.490       .  S
C288       C1064   1.496       .  S
C289        C836   1.486       .  S
O290        H326   0.990       .  S
O291        C293   1.284       .  A
O292        C293   1.291       .  A
C293        C821   1.488       .  S
O294       Zr295   2.434       .  S
O294        H323   0.990       .  S
Zr295       O298   2.436       .  S
Zr295       O299   2.438       .  S
Zr295       O300   2.480   1_565  S
O296        C301   1.283       .  A
O297        H314   0.990       .  S
O297        H329   0.990       .  S
O298        H315   0.989   1_565  S
O299        H319   0.990       .  S
O299        H328   0.989       .  S
O300        C301   1.293       .  A
C301       C1001   1.495       .  S
O302        H321   0.990       .  S
O302        H325   0.990       .  S
O303        H317   0.990       .  S
O303        H324   0.990       .  S
O304        C308   1.288       .  A
O305        C308   1.285   1_565  A
O306        H316   0.990       .  S
O307        H320   0.990       .  S
C308        C845   1.478       .  S
Zr331       O332   2.435   1_565  S
Zr331       O333   2.417       .  S
Zr331       O334   2.476       .  S
Zr331       O337   2.472       .  S
Zr331       O339   2.379       .  S
Zr331       O340   2.382       .  S
Zr331       O341   2.422   1_565  S
Zr331       O342   2.419   1_565  S
O332        H388   0.990   1_545  S
O332        H396   0.990       .  S
O333        C353   1.280       .  A
O334        C355   1.293       .  A
O335       Zr345   2.417       .  S
O335        C354   1.280       .  A
O336       Zr344   2.416       .  S
O336        C355   1.281   1_545  A
O337        C354   1.293       .  A
O338       Zr346   2.457       .  S
O338        C353   1.291       .  A
O339       Zr344   2.374   1_565  S
O339       Zr346   2.362       .  S
O340       Zr345   2.379       .  S
O340       Zr346   2.362       .  S
O340        H375   0.962       .  S
O341       Zr344   2.390       .  S
O341       Zr361   2.418       .  S
O341        H378   0.963       .  S
O342       Zr345   2.396   1_545  S
O342       Zr361   2.419       .  S
Zr343       O368   2.436       .  S
Zr343       O362   2.386       .  S
Zr343       O370   2.469       .  S
Zr343       O358   2.471       .  S
Zr343       O349   2.401   1_545  S
Zr343       O350   2.409   1_545  S
Zr343       O351   2.387       .  S
Zr343       O352   2.385       .  S
Zr344       O363   2.439       .  S
Zr344       O356   2.434       .  S
Zr344       O357   2.405       .  S
Zr344       O350   2.398   1_545  S
Zr344       O351   2.377       .  S
Zr345       O347   2.435   1_565  S
Zr345       O369   2.435       .  S
Zr345       O371   2.406   1_565  S
Zr345       O349   2.390       .  S
Zr345       O352   2.385   1_565  S
Zr346       O372   2.438       .  S
Zr346       O373   2.435       .  S
Zr346       O348   2.435       .  S
Zr346       O349   2.403       .  S
Zr346       O350   2.400       .  S
O347        H384   0.990       .  S
O348        H379   0.990       .  S
O348        H393   0.989       .  S
O350        H376   0.964       .  S
O351       Zr361   2.366       .  S
O352       Zr361   2.354       .  S
O352        H377   0.986       .  S
C353       C1040   1.496       .  S
C354        C857   1.479       .  S
C355        C833   1.485       .  S
O356        H392   0.989   1_545  S
O357        C359   1.281       .  A
O358        C359   1.292       .  A
C359        C980   1.505       .  S
O360       Zr361   2.435       .  S
O360        H389   0.990       .  S
Zr361       O364   2.437       .  S
Zr361       O365   2.438       .  S
Zr361       O366   2.485       .  S
O362        C367   1.277       .  A
O363        H380   0.990       .  S
O363        H395   0.989       .  S
O364        H381   0.990       .  S
O365        H385   0.990       .  S
O365        H394   0.990       .  S
O366        C367   1.294       .  A
C367        C809   1.492       .  S
O368        H387   0.990   1_545  S
O368        H391   0.990       .  S
O369        H383   0.990       .  S
O369        H390   0.989       .  S
O370        C374   1.292       .  A
O371        C374   1.280       .  A
O372        H382   0.990       .  S
O373        H386   0.991       .  S
C374        C848   1.473       .  S
N397        C401   1.365       .  A
N397        C398   1.360       .  A
N397       C1196   1.449       .  S
C398        C399   1.379       .  A
C398        C797   1.478       .  S
C399        C400   1.366       .  A
C399        H402   1.082       .  S
C400        C401   1.384       .  A
C400        H403   1.083       .  S
C401        C824   1.484       .  S
N404        C408   1.369       .  A
N404        C405   1.360       .  A
N404       C1244   1.458       .  S
C405        C406   1.378       .  A
C405        C812   1.476       .  S
C406        C407   1.364       .  A
C406        H409   1.083       .  S
C407        C408   1.385       .  A
C407        H410   1.083       .  S
C408        C788   1.489       .  S
Zr411       O412   2.435   1_455  S
Zr411       O413   2.407       .  S
Zr411       O414   2.469       .  S
Zr411       O417   2.453       .  S
Zr411       O419   2.369       .  S
Zr411       O420   2.383       .  S
Zr411       O421   2.409   1_455  S
Zr411       O422   2.411   1_455  S
O412        H468   0.990   1_655  S
O412        H476   0.990       .  S
O413        C433   1.278       .  A
O414        C435   1.292       .  A
O415       Zr425   2.421       .  S
O415        C434   1.283       .  A
O416       Zr424   2.384       .  S
O416        C435   1.277   1_655  A
O417        C434   1.291       .  A
O418       Zr426   2.464       .  S
O418        C433   1.291       .  A
O419       Zr424   2.387   1_455  S
O419       Zr426   2.362       .  S
O420       Zr425   2.378       .  S
O420       Zr426   2.363       .  S
O420        H455   0.962       .  S
O421       Zr424   2.398       .  S
O421       Zr441   2.402       .  S
O421        H458   0.967       .  S
O422       Zr425   2.392   1_655  S
O422       Zr441   2.407       .  S
Zr423       O448   2.435   1_655  S
Zr423       O442   2.403       .  S
Zr423       O450   2.431   1_655  S
Zr423       O438   2.446       .  S
Zr423       O429   2.407   1_655  S
Zr423       O430   2.395   1_655  S
Zr423       O431   2.372       .  S
Zr423       O432   2.385       .  S
Zr424       O443   2.439       .  S
Zr424       O436   2.434   1_655  S
Zr424       O437   2.418       .  S
Zr424       O430   2.391   1_655  S
Zr424       O431   2.362       .  S
Zr425       O427   2.435       .  S
Zr425       O449   2.436       .  S
Zr425       O451   2.417       .  S
Zr425       O429   2.398       .  S
Zr425       O432   2.376   1_455  S
Zr426       O452   2.436       .  S
Zr426       O453   2.435       .  S
Zr426       O428   2.439       .  S
Zr426       O429   2.416       .  S
Zr426       O430   2.409       .  S
O427        H464   0.990   1_455  S
O428        H459   0.990       .  S
O428        H473   0.990       .  S
O430        H456   0.966       .  S
O431       Zr441   2.365       .  S
O432       Zr441   2.356       .  S
O432        H457   0.964       .  S
C433        C749   1.498       .  S
C434       C1160   1.483       .  S
C435        C761   1.494       .  S
O436        H472   0.990   1_455  S
O437        C439   1.281       .  A
O438        C439   1.288       .  A
C439        C956   1.478       .  S
O440       Zr441   2.435       .  S
O440        H469   0.991       .  S
Zr441       O444   2.433       .  S
Zr441       O445   2.441       .  S
Zr441       O446   2.462       .  S
O442        C447   1.280       .  A
O443        H460   0.990       .  S
O443        H475   0.990       .  S
O444        H461   0.990       .  S
O445        H465   0.990       .  S
O445        H474   0.989       .  S
O446        C447   1.291       .  A
C447       C1097   1.482       .  S
O448        H467   0.991       .  S
O448        H471   0.989       .  S
O449        H463   0.990       .  S
O449        H470   0.991       .  S
O450        C454   1.286       .  A
O451        C454   1.282       .  A
O452        H462   0.990       .  S
O453        H466   0.990       .  S
C454        C776   1.466       .  S
Zr477       O478   2.434   1_655  S
Zr477       O479   2.412       .  S
Zr477       O480   2.438       .  S
Zr477       O483   2.442       .  S
Zr477       O485   2.376       .  S
Zr477       O486   2.384       .  S
Zr477       O487   2.407   1_655  S
Zr477       O488   2.407   1_655  S
O478        H534   0.991       .  S
O478        H542   0.990       .  S
O479        C499   1.280       .  A
O480        C501   1.287       .  A
O481       Zr491   2.406       .  S
O481        C500   1.277       .  A
O482       Zr490   2.426       .  S
O482        C501   1.283       .  A
O483        C500   1.285   1_655  A
O484       Zr492   2.459       .  S
O484        C499   1.289       .  A
O485       Zr490   2.371       .  S
O485       Zr492   2.365       .  S
O486       Zr491   2.372   1_655  S
O486       Zr492   2.362       .  S
O486        H521   0.967       .  S
O487       Zr490   2.390   1_455  S
O487       Zr507   2.411       .  S
O487        H524   0.965       .  S
O488       Zr491   2.392       .  S
O488       Zr507   2.408       .  S
Zr489       O514   2.435   1_455  S
Zr489       O508   2.429       .  S
Zr489       O516   2.462       .  S
Zr489       O504   2.439       .  S
Zr489       O495   2.404   1_455  S
Zr489       O496   2.421   1_455  S
Zr489       O497   2.381       .  S
Zr489       O498   2.378       .  S
Zr490       O509   2.436       .  S
Zr490       O502   2.438       .  S
Zr490       O503   2.394       .  S
Zr490       O496   2.401       .  S
Zr490       O497   2.388   1_655  S
Zr491       O493   2.437       .  S
Zr491       O515   2.437   1_455  S
Zr491       O517   2.401       .  S
Zr491       O495   2.389   1_455  S
Zr491       O498   2.373       .  S
Zr492       O518   2.437       .  S
Zr492       O519   2.435       .  S
Zr492       O494   2.436       .  S
Zr492       O495   2.413       .  S
Zr492       O496   2.408       .  S
O493        H530   0.990       .  S
O494        H525   0.990       .  S
O494        H539   0.990       .  S
O496        H522   0.964       .  S
O497       Zr507   2.357       .  S
O498       Zr507   2.363       .  S
O498        H523   0.967       .  S
C499       C1076   1.473       .  S
C500        C764   1.480       .  S
C501        C932   1.474       .  S
O502        H538   0.989       .  S
O503        C505   1.278       .  A
O504        C505   1.288   1_455  A
C505        C773   1.467       .  S
O506       Zr507   2.436       .  S
O506        H535   0.990       .  S
Zr507       O510   2.436       .  S
Zr507       O511   2.436       .  S
Zr507       O512   2.469       .  S
O508        C513   1.283       .  A
O509        H526   0.990       .  S
O509        H541   0.991       .  S
O510        H527   0.990       .  S
O511        H531   0.990       .  S
O511        H540   0.990       .  S
O512        C513   1.293       .  A
C513        C737   1.503       .  S
O514        H533   0.990       .  S
O514        H537   0.990       .  S
O515        H529   0.990       .  S
O515        H536   0.989   1_655  S
O516        C520   1.289       .  A
O517        C520   1.281       .  A
O518        H528   0.990       .  S
O519        H532   0.990       .  S
C520       C1136   1.500       .  S
N543        C547   1.366       .  A
N543        C544   1.361       .  A
N543       C1292   1.463       .  S
C544        C545   1.382       .  A
C544        C752   1.485       .  S
C545        C546   1.365       .  A
C545        H548   1.083       .  S
C546        C547   1.382       .  A
C546        H549   1.081       .  S
C547        C725   1.498       .  S
N550        C554   1.372       .  A
N550        C551   1.373       .  A
N550       C1340   1.468       .  S
C551        C552   1.382       .  A
C551        C740   1.497       .  S
C552        C553   1.362       .  A
C552        H555   1.083       .  S
C553        C554   1.381       .  A
C553        H556   1.082       .  S
C554        C716   1.506       .  S
Zr557       O558   2.436       .  S
Zr557       O559   2.421       .  S
Zr557       O560   2.460       .  S
Zr557       O563   2.472       .  S
Zr557       O565   2.383       .  S
Zr557       O566   2.378       .  S
Zr557       O567   2.420       .  S
Zr557       O568   2.409       .  S
O558        H614   0.991       .  S
O558        H622   0.990       .  S
O559        C579   1.281       .  A
O560        C581   1.290       .  A
O561       Zr571   2.390       .  S
O561        C580   1.278       .  A
O562       Zr570   2.409       .  S
O562        C581   1.280       .  A
O563        C580   1.293       .  A
O564       Zr572   2.468       .  S
O564        C579   1.292       .  A
O565       Zr570   2.391       .  S
O565       Zr572   2.362       .  S
O566       Zr571   2.381       .  S
O566       Zr572   2.359       .  S
O566        H601   0.966       .  S
O567       Zr570   2.410       .  S
O567       Zr587   2.404       .  S
O567        H604   0.967       .  S
O568       Zr571   2.402       .  S
O568       Zr587   2.407       .  S
Zr569       O594   2.435       .  S
Zr569       O588   2.414       .  S
Zr569       O596   2.439       .  S
Zr569       O584   2.414       .  S
Zr569       O575   2.399       .  S
Zr569       O576   2.412       .  S
Zr569       O577   2.375       .  S
Zr569       O578   2.375       .  S
Zr570       O589   2.438       .  S
Zr570       O582   2.437       .  S
Zr570       O583   2.447       .  S
Zr570       O576   2.393       .  S
Zr570       O577   2.372       .  S
Zr571       O573   2.435       .  S
Zr571       O595   2.437       .  S
Zr571       O597   2.420       .  S
Zr571       O575   2.387       .  S
Zr571       O578   2.378       .  S
Zr572       O598   2.435       .  S
Zr572       O599   2.435       .  S
Zr572       O574   2.439       .  S
Zr572       O575   2.417       .  S
Zr572       O576   2.416       .  S
O573        H610   0.990       .  S
O574        H605   0.991       .  S
O574        H619   0.989       .  S
O576        H602   0.964       .  S
O577       Zr587   2.362       .  S
O578       Zr587   2.373       .  S
O578        H603   0.966       .  S
C579        C800   1.496       .  S
C580       C1112   1.487       .  S
C581        C689   1.471       .  S
O582        H618   0.990       .  S
O583        C585   1.286       .  A
O584        C585   1.283       .  A
C585        C728   1.494       .  S
O586       Zr587   2.436       .  S
O586        H615   0.990       .  S
Zr587       O590   2.436       .  S
Zr587       O591   2.437       .  S
Zr587       O592   2.450       .  S
O588        C593   1.280       .  A
O589        H606   0.990       .  S
O589        H621   0.989       .  S
O590        H607   0.989       .  S
O591        H611   0.989       .  S
O591        H620   0.990       .  S
O592        C593   1.288       .  A
C593       C1052   1.484       .  S
O594        H613   0.989       .  S
O594        H617   0.991       .  S
O595        H609   0.990       .  S
O595        H616   0.990       .  S
O596        C600   1.284       .  A
O597        C600   1.281       .  A
O598        H608   0.990       .  S
O599        H612   0.990       .  S
C600        C704   1.468       .  S
Zr623       O624   2.434       .  S
Zr623       O625   2.407       .  S
Zr623       O626   2.439       .  S
Zr623       O629   2.459       .  S
Zr623       O631   2.382       .  S
Zr623       O632   2.379       .  S
Zr623       O633   2.412       .  S
Zr623       O634   2.404       .  S
O624        H680   0.990       .  S
O624        H688   0.990       .  S
O625        C645   1.280       .  A
O626        C647   1.285       .  A
O627       Zr637   2.440       .  S
O627        C646   1.285       .  A
O628       Zr636   2.435       .  S
O628        C647   1.288       .  A
O629        C646   1.291       .  A
O630       Zr638   2.470       .  S
O630        C645   1.292       .  A
O631       Zr636   2.380       .  S
O631       Zr638   2.360       .  S
O632       Zr637   2.379       .  S
O632       Zr638   2.361       .  S
O632        H667   0.967       .  S
O633       Zr636   2.400       .  S
O633       Zr653   2.408       .  S
O633        H670   0.965       .  S
O634       Zr637   2.396       .  S
O634       Zr653   2.425       .  S
Zr635       O660   2.436       .  S
Zr635       O654   2.429       .  S
Zr635       O662   2.449       .  S
Zr635       O650   2.461       .  S
Zr635       O641   2.417       .  S
Zr635       O642   2.414       .  S
Zr635       O643   2.372       .  S
Zr635       O644   2.381       .  S
Zr636       O655   2.436       .  S
Zr636       O648   2.438       .  S
Zr636       O649   2.438       .  S
Zr636       O642   2.399       .  S
Zr636       O643   2.385       .  S
Zr637       O639   2.435       .  S
Zr637       O661   2.437       .  S
Zr637       O663   2.415       .  S
Zr637       O641   2.401       .  S
Zr637       O644   2.388       .  S
Zr638       O664   2.435       .  S
Zr638       O665   2.436       .  S
Zr638       O640   2.439       .  S
Zr638       O641   2.416       .  S
Zr638       O642   2.412       .  S
O639        H676   0.990       .  S
O640        H671   0.989       .  S
O640        H685   0.990       .  S
O642        H668   0.968       .  S
O643       Zr653   2.360       .  S
O644       Zr653   2.361       .  S
O644        H669   0.965       .  S
C645       C1088   1.492       .  S
C646        C785   1.493       .  S
C647        C692   1.495       .  S
O648        H684   0.990       .  S
O649        C651   1.287       .  A
O650        C651   1.292       .  A
C651       C1028   1.500       .  S
O652       Zr653   2.435       .  S
O652        H681   0.990       .  S
Zr653       O656   2.435       .  S
Zr653       O657   2.436       .  S
Zr653       O658   2.480       .  S
O654        C659   1.284       .  A
O655        H672   0.990       .  S
O655        H687   0.990       .  S
O656        H673   0.990       .  S
O657        H677   0.990       .  S
O657        H686   0.990       .  S
O658        C659   1.292       .  A
C659        C713   1.494       .  S
O660        H679   0.990       .  S
O660        H683   0.990       .  S
O661        H675   0.990       .  S
O661        H682   0.991       .  S
O662        C666   1.288       .  A
O663        C666   1.282       .  A
O664        H674   0.989       .  S
O665        H678   0.989       .  S
C666        C701   1.483       .  S
C689        C690   1.403       .  A
C689        C694   1.408       .  A
C690        C691   1.406       .  A
C690        H699   1.084       .  S
C691        C692   1.420       .  A
C691        S695   1.799       .  S
C692        C693   1.408       .  A
C693        C694   1.396       .  A
C693        H700   1.084       .  S
C694        S696   1.805       .  S
S695        H698   1.407       .  S
S696        H697   1.405       .  S
C701        C702   1.409       .  A
C701        C706   1.413       .  A
C702        C703   1.397       .  A
C702        H711   1.084       .  S
C703        C704   1.407   1_556  A
C703        S707   1.803   1_556  S
C704        C705   1.403       .  A
C705        C706   1.401   1_554  A
C705        H712   1.084       .  S
C706        S708   1.797       .  S
S707        H710   1.406       .  S
S708        H709   1.407       .  S
C713        C714   1.407       .  A
C713        C718   1.412       .  A
C714        C715   1.416       .  A
C714        H723   1.082       .  S
C715        C716   1.419       .  A
C715        S719   1.801       .  S
C716        C717   1.407       .  A
C717        C718   1.402       .  A
C717        H724   1.084       .  S
C718        S720   1.800       .  S
S719        H722   1.407       .  S
S720        H721   1.405       .  S
C725        C726   1.405       .  A
C725        C730   1.426       .  A
C726        C727   1.406       .  A
C726        H735   1.082       .  S
C727        C728   1.418       .  A
C727        S731   1.799       .  S
C728        C729   1.403       .  A
C729        C730   1.397       .  A
C729        H736   1.082       .  S
C730        S732   1.815       .  S
S731        H734   1.408       .  S
S732        H733   1.406       .  S
C737        C738   1.403       .  A
C737        C742   1.424       .  A
C738        C739   1.401       .  A
C738        H747   1.082       .  S
C739        C740   1.417       .  A
C739        S743   1.806       .  S
C740        C741   1.404       .  A
C741        C742   1.415       .  A
C741        H748   1.083       .  S
C742        S744   1.807       .  S
S743        H746   1.407       .  S
S744        H745   1.406       .  S
C749        C750   1.404       .  A
C749        C754   1.425       .  A
C750        C751   1.399       .  A
C750        H759   1.083       .  S
C751        C752   1.415       .  A
C751        S755   1.796       .  S
C752        C753   1.397       .  A
C753        C754   1.401       .  A
C753        H760   1.083       .  S
C754        S756   1.800       .  S
S755        H758   1.405       .  S
S756        H757   1.406       .  S
C761        C762   1.417       .  A
C761        C766   1.412       .  A
C762        C763   1.396       .  A
C762        H771   1.083   1_455  S
C763        C764   1.406       .  A
C763        S767   1.803   1_455  S
C764        C765   1.409       .  A
C765        C766   1.401       .  A
C765        H772   1.080       .  S
C766        S768   1.807       .  S
S767        H770   1.407   1_655  S
S768        H769   1.407       .  S
C773        C774   1.402   1_655  A
C773        C778   1.415       .  A
C774        C775   1.394       .  A
C774        H783   1.083       .  S
C775        C776   1.410   1_556  A
C775        S779   1.803   1_556  S
C776        C777   1.403   1_455  A
C777        C778   1.396   1_554  A
C777        H784   1.084       .  S
C778        S780   1.806       .  S
S779        H782   1.407       .  S
S780        H781   1.407       .  S
C785        C786   1.405       .  A
C785        C790   1.416       .  A
C786        C787   1.404       .  A
C786        H795   1.083       .  S
C787        C788   1.414       .  A
C787        S791   1.805       .  S
C788        C789   1.405       .  A
C789        C790   1.411       .  A
C789        H796   1.083       .  S
C790        S792   1.805       .  S
S791        H794   1.408       .  S
S792        H793   1.407       .  S
C797        C798   1.398       .  A
C797        C802   1.410       .  A
C798        C799   1.407       .  A
C798        H807   1.083       .  S
C799        C800   1.423       .  A
C799        S803   1.807       .  S
C800        C801   1.405       .  A
C801        C802   1.405       .  A
C801        H808   1.083       .  S
C802        S804   1.807       .  S
S803        H806   1.407       .  S
S804        H805   1.407       .  S
C809        C810   1.412       .  A
C809        C814   1.413       .  A
C810        C811   1.396       .  A
C810        H819   1.084       .  S
C811        C812   1.405       .  A
C811        S815   1.804       .  S
C812        C813   1.408       .  A
C813        C814   1.407       .  A
C813        H820   1.084       .  S
C814        S816   1.801       .  S
S815        H818   1.406       .  S
S816        H817   1.407       .  S
C821        C822   1.403       .  A
C821        C826   1.418       .  A
C822        C823   1.399       .  A
C822        H831   1.084       .  S
C823        C824   1.413       .  A
C823        S827   1.800       .  S
C824        C825   1.406       .  A
C825        C826   1.408       .  A
C825        H832   1.083       .  S
C826        S828   1.802       .  S
S827        H830   1.406       .  S
S828        H829   1.407       .  S
C833        C834   1.403   1_565  A
C833        C838   1.418       .  A
C834        C835   1.410       .  A
C834        H843   1.083       .  S
C835        C836   1.415   1_545  A
C835        S839   1.807       .  S
C836        C837   1.401       .  A
C837        C838   1.404       .  A
C837        H844   1.084       .  S
C838        S840   1.805       .  S
S839        H842   1.407       .  S
S840        H841   1.406       .  S
C845        C846   1.400   1_554  A
C845        C850   1.416   1_544  A
C846        C847   1.399       .  A
C846        H855   1.084   1_556  S
C847        C848   1.415       .  A
C847        S851   1.802       .  S
C848        C849   1.400   1_545  A
C849        C850   1.403       .  A
C849        H856   1.084       .  S
C850        S852   1.802   1_556  S
S851        H854   1.406       .  S
S852        H853   1.407       .  S
C857        C858   1.402       .  A
C857        C862   1.411       .  A
C858        C859   1.404       .  A
C858        H867   1.084       .  S
C859        C860   1.414       .  A
C859        S863   1.792       .  S
C860        C861   1.405       .  A
C861        C862   1.399       .  A
C861        H868   1.084       .  S
C862        S864   1.798       .  S
S863        H866   1.406       .  S
S864        H865   1.404       .  S
C869        C870   1.406       .  A
C869        C874   1.415       .  A
C870        C871   1.405       .  A
C870        H879   1.079       .  S
C871        C872   1.416       .  A
C871        S875   1.805       .  S
C872        C873   1.408       .  A
C873        C874   1.403       .  A
C873        H880   1.084       .  S
C874        S876   1.803       .  S
S875        H878   1.400       .  S
S876        H877   1.402       .  S
C881        C882   1.412       .  A
C881        C886   1.411       .  A
C882        C883   1.400       .  A
C882        H891   1.082       .  S
C883        C884   1.407       .  A
C883        S887   1.803       .  S
C884        C885   1.406       .  A
C885        C886   1.400       .  A
C885        H892   1.080       .  S
C886        S888   1.800       .  S
S887        H890   1.408       .  S
S888        H889   1.406       .  S
C893        C894   1.412       .  A
C893        C898   1.418       .  A
C894        C895   1.410       .  A
C894        H903   1.084       .  S
C895        C896   1.413       .  A
C895        S899   1.803       .  S
C896        C897   1.408       .  A
C897        C898   1.408       .  A
C897        H904   1.078       .  S
C898        S900   1.802       .  S
S899        H902   1.407       .  S
S900        H901   1.404       .  S
C905        C906   1.394   1_655  A
C905        C910   1.415   1_545  A
C906        C907   1.389       .  A
C906        H915   1.084       .  S
C907        C908   1.416       .  A
C907        S911   1.804       .  S
C908        C909   1.394   1_445  A
C909        C910   1.393       .  A
C909        H916   1.083       .  S
C910        S912   1.809       .  S
S911        H914   1.405       .  S
S912        H913   1.407       .  S
C917        C918   1.400       .  A
C917        C922   1.409   1_655  A
C918        C919   1.390   1_556  A
C918        H927   1.085       .  S
C919        C920   1.410   1_655  A
C919        S923   1.801   1_565  S
C920        C921   1.401   1_554  A
C921        C922   1.390       .  A
C921        H928   1.085   1_556  S
C922        S924   1.801       .  S
S923        H926   1.404   1_545  S
S924        H925   1.406       .  S
C929        C930   1.404       .  A
C929        C934   1.413       .  A
C930        C931   1.404       .  A
C930        H939   1.080       .  S
C931        C932   1.410       .  A
C931        S935   1.806       .  S
C932        C933   1.401       .  A
C933        C934   1.398       .  A
C933        H940   1.084       .  S
C934        S936   1.802       .  S
S935        H938   1.407       .  S
S936        H937   1.406       .  S
C941        C942   1.408       .  A
C941        C946   1.412       .  A
C942        C943   1.413       .  A
C942        H951   1.082       .  S
C943        C944   1.414       .  A
C943        S947   1.804       .  S
C944        C945   1.404       .  A
C945        C946   1.395       .  A
C945        H952   1.084       .  S
C946        S948   1.802       .  S
S947        H950   1.407       .  S
S948        H949   1.402       .  S
C953        C954   1.399       .  A
C953        C958   1.417       .  A
C954        C955   1.406       .  A
C954        H963   1.083       .  S
C955        C956   1.416       .  A
C955        S959   1.804       .  S
C956        C957   1.399       .  A
C957        C958   1.400       .  A
C957        H964   1.083       .  S
C958        S960   1.809       .  S
S959        H962   1.407       .  S
S960        H961   1.407       .  S
C965        C966   1.406       .  A
C965        C970   1.416       .  A
C966        C967   1.406       .  A
C966        H975   1.081       .  S
C967        C968   1.411       .  A
C967        S971   1.806       .  S
C968        C969   1.403       .  A
C969        C970   1.399       .  A
C969        H976   1.084       .  S
C970        S972   1.805       .  S
S971        H974   1.407       .  S
S972        H973   1.405       .  S
C977        C978   1.408       .  A
C977        C982   1.402       .  A
C978        C979   1.408       .  A
C978        H987   1.081       .  S
C979        C980   1.418       .  A
C979        S983   1.807       .  S
C980        C981   1.417       .  A
C981        C982   1.400       .  A
C981        H988   1.083       .  S
C982        S984   1.803       .  S
S983        H986   1.407       .  S
S984        H985   1.404       .  S
C989        C990   1.400       .  A
C989        C994   1.412       .  A
C990        C991   1.398       .  A
C990        H999   1.084       .  S
C991        C992   1.413       .  A
C991        S995   1.799       .  S
C992        C993   1.404       .  A
C993        C994   1.399       .  A
C993       H1000   1.083       .  S
C994        S996   1.806       .  S
S995        H998   1.404       .  S
S996        H997   1.403       .  S
C1001      C1002   1.408       .  A
C1001      C1006   1.415       .  A
C1002      C1003   1.407       .  A
C1002      H1011   1.084       .  S
C1003      C1004   1.414       .  A
C1003      S1007   1.803       .  S
C1004      C1005   1.407       .  A
C1005      C1006   1.407       .  A
C1005      H1012   1.083       .  S
C1006      S1008   1.802       .  S
S1007      H1010   1.406   1_554  S
S1008      H1009   1.405       .  S
C1013      C1014   1.405       .  A
C1013      C1018   1.410       .  A
C1014      C1015   1.406       .  A
C1014      H1023   1.083       .  S
C1015      C1016   1.416       .  A
C1015      S1019   1.802       .  S
C1016      C1017   1.408       .  A
C1017      C1018   1.403       .  A
C1017      H1024   1.082       .  S
C1018      S1020   1.797       .  S
S1019      H1022   1.407       .  S
S1020      H1021   1.404       .  S
C1025      C1026   1.403       .  A
C1025      C1030   1.413       .  A
C1026      C1027   1.403       .  A
C1026      H1035   1.084       .  S
C1027      C1028   1.418       .  A
C1027      S1031   1.797       .  S
C1028      C1029   1.408       .  A
C1029      C1030   1.409       .  A
C1029      H1036   1.082       .  S
C1030      S1032   1.805       .  S
S1031      H1034   1.406       .  S
S1032      H1033   1.406       .  S
C1037      C1038   1.399       .  A
C1037      C1042   1.408       .  A
C1038      C1039   1.410       .  A
C1038      H1047   1.083       .  S
C1039      C1040   1.424       .  A
C1039      S1043   1.809       .  S
C1040      C1041   1.405       .  A
C1041      C1042   1.399       .  A
C1041      H1048   1.083       .  S
C1042      S1044   1.804       .  S
S1043      H1046   1.407       .  S
S1044      H1045   1.407       .  S
C1049      C1050   1.407       .  A
C1049      C1054   1.411       .  A
C1050      C1051   1.399       .  A
C1050      H1059   1.083       .  S
C1051      C1052   1.411       .  A
C1051      S1055   1.801       .  S
C1052      C1053   1.408       .  A
C1053      C1054   1.402       .  A
C1053      H1060   1.084       .  S
C1054      S1056   1.804       .  S
S1055      H1058   1.407       .  S
S1056      H1057   1.407       .  S
C1061      C1062   1.404       .  A
C1061      C1066   1.414       .  A
C1062      C1063   1.400       .  A
C1062      H1071   1.084       .  S
C1063      C1064   1.416       .  A
C1063      S1067   1.798       .  S
C1064      C1065   1.406       .  A
C1065      C1066   1.412       .  A
C1065      H1072   1.082       .  S
C1066      S1068   1.800       .  S
S1067      H1070   1.402       .  S
S1068      H1069   1.406       .  S
C1073      C1074   1.409       .  A
C1073      C1078   1.418       .  A
C1074      C1075   1.402       .  A
C1074      H1083   1.084       .  S
C1075      C1076   1.410       .  A
C1075      S1079   1.806       .  S
C1076      C1077   1.399       .  A
C1077      C1078   1.405       .  A
C1077      H1084   1.083       .  S
C1078      S1080   1.802       .  S
S1079      H1082   1.404       .  S
S1080      H1081   1.406       .  S
C1085      C1086   1.406       .  A
C1085      C1090   1.407       .  A
C1086      C1087   1.399       .  A
C1086      H1095   1.082       .  S
C1087      C1088   1.414       .  A
C1087      S1091   1.802       .  S
C1088      C1089   1.412       .  A
C1089      C1090   1.405       .  A
C1089      H1096   1.083       .  S
C1090      S1092   1.802       .  S
S1091      H1094   1.408       .  S
S1092      H1093   1.406       .  S
C1097      C1098   1.408       .  A
C1097      C1102   1.414       .  A
C1098      C1099   1.402       .  A
C1098      H1107   1.083       .  S
C1099      C1100   1.408       .  A
C1099      S1103   1.800       .  S
C1100      C1101   1.405       .  A
C1101      C1102   1.399       .  A
C1101      H1108   1.082       .  S
C1102      S1104   1.804       .  S
S1103      H1106   1.406       .  S
S1104      H1105   1.403       .  S
C1109      C1110   1.407       .  A
C1109      C1114   1.400       .  A
C1110      C1111   1.401       .  A
C1110      H1119   1.082       .  S
C1111      C1112   1.411       .  A
C1111      S1115   1.800       .  S
C1112      C1113   1.414       .  A
C1113      C1114   1.402       .  A
C1113      H1120   1.083       .  S
C1114      S1116   1.806       .  S
S1115      H1118   1.408       .  S
S1116      H1117   1.407       .  S
C1121      C1122   1.416       .  A
C1121      C1126   1.416       .  A
C1122      C1123   1.389       .  A
C1122      H1131   1.083       .  S
C1123      C1124   1.403       .  A
C1123      S1127   1.809       .  S
C1124      C1125   1.407       .  A
C1125      C1126   1.408       .  A
C1125      H1132   1.083       .  S
C1126      S1128   1.806       .  S
S1127      H1130   1.403       .  S
S1128      H1129   1.407       .  S
C1133      C1134   1.406       .  A
C1133      C1138   1.406       .  A
C1134      C1135   1.407       .  A
C1134      H1143   1.084       .  S
C1135      C1136   1.419       .  A
C1135      S1139   1.800       .  S
C1136      C1137   1.413       .  A
C1137      C1138   1.391       .  A
C1137      H1144   1.083       .  S
C1138      S1140   1.811       .  S
S1139      H1142   1.408       .  S
S1140      H1141   1.402       .  S
C1145      C1146   1.406       .  A
C1145      C1150   1.411       .  A
C1146      C1147   1.408       .  A
C1146      H1155   1.082       .  S
C1147      C1148   1.411       .  A
C1147      S1151   1.806       .  S
C1148      C1149   1.401       .  A
C1149      C1150   1.399       .  A
C1149      H1156   1.082       .  S
C1150      S1152   1.801       .  S
S1151      H1154   1.407       .  S
S1152      H1153   1.407       .  S
C1157      C1158   1.404       .  A
C1157      C1162   1.417       .  A
C1158      C1159   1.407       .  A
C1158      H1167   1.082       .  S
C1159      C1160   1.415       .  A
C1159      S1163   1.806       .  S
C1160      C1161   1.401       .  A
C1161      C1162   1.398       .  A
C1161      H1168   1.084       .  S
C1162      S1164   1.803       .  S
S1163      H1166   1.407       .  S
S1164      H1165   1.399       .  S
C1169      C1170   1.404       .  A
C1169      C1174   1.417       .  A
C1170      C1171   1.415       .  A
C1170      H1179   1.083       .  S
C1171      C1172   1.432       .  A
C1171      S1175   1.803       .  S
C1172      C1173   1.411       .  A
C1173      C1174   1.398       .  A
C1173      H1180   1.080       .  S
C1174      S1176   1.802       .  S
S1175      H1178   1.404       .  S
S1176      H1177   1.406       .  S
C1181      C1182   1.412       .  A
C1181      C1186   1.412       .  A
C1182      C1183   1.413       .  A
C1182      H1191   1.081       .  S
C1183      C1184   1.418       .  A
C1183      S1187   1.804       .  S
C1184      C1185   1.412       .  A
C1185      C1186   1.412       .  A
C1185      H1192   1.082       .  S
C1186      S1188   1.801       .  S
S1187      H1190   1.407       .  S
S1188      H1189   1.407       .  S
C1193      C1194   1.404       .  A
C1193      C1198   1.422       .  A
C1194      C1195   1.404       .  A
C1194      H1203   1.083       .  S
C1195      C1196   1.420       .  A
C1195      S1199   1.806       .  S
C1196      C1197   1.401       .  A
C1197      C1198   1.414       .  A
C1197      H1204   1.082       .  S
C1198      S1200   1.807       .  S
S1199      H1202   1.398       .  S
S1200      H1201   1.407       .  S
C1205      C1206   1.406       .  A
C1205      C1210   1.411       .  A
C1206      C1207   1.412       .  A
C1206      H1215   1.082       .  S
C1207      C1208   1.418       .  A
C1207      S1211   1.801       .  S
C1208      C1209   1.409       .  A
C1209      C1210   1.402       .  A
C1209      H1216   1.080       .  S
C1210      S1212   1.806       .  S
S1211      H1214   1.404       .  S
S1212      H1213   1.407       .  S
C1217      C1218   1.408       .  A
C1217      C1222   1.408       .  A
C1218      C1219   1.410   1_554  A
C1218      H1227   1.082   1_554  S
C1219      C1220   1.420   1_556  A
C1219      S1223   1.806       .  S
C1220      C1221   1.418       .  A
C1221      C1222   1.412       .  A
C1221      H1228   1.083       .  S
C1222      S1224   1.798       .  S
S1223      H1226   1.407       .  S
S1224      H1225   1.405       .  S
C1229      C1230   1.402       .  A
C1229      C1234   1.416       .  A
C1230      C1231   1.419       .  A
C1230      H1239   1.082       .  S
C1231      C1232   1.432       .  A
C1231      S1235   1.806       .  S
C1232      C1233   1.411   1_554  A
C1233      C1234   1.403   1_556  A
C1233      H1240   1.082       .  S
C1234      S1236   1.809   1_554  S
S1235      H1238   1.407       .  S
S1236      H1237   1.406       .  S
C1241      C1242   1.402       .  A
C1241      C1246   1.416       .  A
C1242      C1243   1.404       .  A
C1242      H1251   1.082       .  S
C1243      C1244   1.421       .  A
C1243      S1247   1.800       .  S
C1244      C1245   1.409       .  A
C1245      C1246   1.415       .  A
C1245      H1252   1.083       .  S
C1246      S1248   1.802       .  S
S1247      H1250   1.406       .  S
S1248      H1249   1.406       .  S
C1253      C1254   1.402       .  A
C1253      C1258   1.418       .  A
C1254      C1255   1.403       .  A
C1254      H1263   1.080       .  S
C1255      C1256   1.418       .  A
C1255      S1259   1.807       .  S
C1256      C1257   1.401       .  A
C1257      C1258   1.409       .  A
C1257      H1264   1.080       .  S
C1258      S1260   1.807       .  S
S1259      H1262   1.397       .  S
S1260      H1261   1.407       .  S
C1265      C1266   1.403       .  A
C1265      C1270   1.416       .  A
C1266      C1267   1.404       .  A
C1266      H1275   1.084       .  S
C1267      C1268   1.416       .  A
C1267      S1271   1.802       .  S
C1268      C1269   1.402       .  A
C1269      C1270   1.410       .  A
C1269      H1276   1.081       .  S
C1270      S1272   1.806       .  S
S1271      H1274   1.404       .  S
S1272      H1273   1.407       .  S
C1277      C1278   1.403       .  A
C1277      C1282   1.416       .  A
C1278      C1279   1.407       .  A
C1278      H1287   1.082       .  S
C1279      C1280   1.423       .  A
C1279      S1283   1.797       .  S
C1280      C1281   1.413       .  A
C1281      C1282   1.405       .  A
C1281      H1288   1.075       .  S
C1282      S1284   1.804       .  S
S1283      H1286   1.408       .  S
S1284      H1285   1.408       .  S
C1289      C1290   1.417       .  A
C1289      C1294   1.422       .  A
C1290      C1291   1.413       .  A
C1290      H1299   1.078       .  S
C1291      C1292   1.410       .  A
C1291      S1295   1.803       .  S
C1292      C1293   1.412       .  A
C1293      C1294   1.406       .  A
C1293      H1300   1.081       .  S
C1294      S1296   1.810       .  S
S1295      H1298   1.406       .  S
S1296      H1297   1.407       .  S
C1301      C1302   1.416       .  A
C1301      C1306   1.418       .  A
C1302      C1303   1.413       .  A
C1302      H1311   1.083       .  S
C1303      C1304   1.414       .  A
C1303      S1307   1.794       .  S
C1304      C1305   1.415       .  A
C1305      C1306   1.408       .  A
C1305      H1312   1.079       .  S
C1306      S1308   1.799       .  S
S1307      H1310   1.406       .  S
S1308      H1309   1.404       .  S
C1313      C1314   1.401       .  A
C1313      C1318   1.412       .  A
C1314      C1315   1.409       .  A
C1314      H1323   1.082       .  S
C1315      C1316   1.423       .  A
C1315      S1319   1.796       .  S
C1316      C1317   1.412       .  A
C1317      C1318   1.411       .  A
C1317      H1324   1.082       .  S
C1318      S1320   1.806       .  S
S1319      H1322   1.394       .  S
S1320      H1321   1.407       .  S
C1325      C1326   1.404       .  A
C1325      C1330   1.415       .  A
C1326      C1327   1.416       .  A
C1326      H1335   1.081       .  S
C1327      C1328   1.420       .  A
C1327      S1331   1.806       .  S
C1328      C1329   1.403       .  A
C1329      C1330   1.406       .  A
C1329      H1336   1.081       .  S
C1330      S1332   1.804       .  S
S1331      H1334   1.407       .  S
S1332      H1333   1.407       .  S
C1337      C1338   1.416       .  A
C1337      C1342   1.414       .  A
C1338      C1339   1.413       .  A
C1338      H1347   1.083       .  S
C1339      C1340   1.418       .  A
C1339      S1343   1.803       .  S
C1340      C1341   1.416       .  A
C1341      C1342   1.411       .  A
C1341      H1348   1.081       .  S
C1342      S1344   1.800   1_556  S
S1343      H1346   1.399       .  S
S1344      H1345   1.407       .  S
C1349      C1350   1.413       .  A
C1349      C1354   1.424       .  A
C1350      C1351   1.409       .  A
C1350      H1359   1.076       .  S
C1351      C1352   1.419       .  A
C1351      S1355   1.798       .  S
C1352      C1353   1.410       .  A
C1353      C1354   1.406       .  A
C1353      H1360   1.080       .  S
C1354      S1356   1.813       .  S
S1355      H1358   1.399       .  S
S1356      H1357   1.407       .  S
