geometry optimzed in LAMMPS
_audit_creation_date              2020-11-30 
_audit_creation_method            'lammps2cif' 
_symmetry_space_group_name_H-M    'P1' 
_symmetry_Int_Tables_number       1 
_symmetry_cell_setting            triclinic 
loop_ 
_symmetry_equiv_pos_as_xyz 
  x,y,z 
_cell_length_a                    55.3840237113409 
_cell_length_b                    69.13049420237341 
_cell_length_c                    37.82809521147663 
_cell_angle_alpha                 90.1752682620074 
_cell_angle_beta                  89.35068159275401 
_cell_angle_gamma                 90.08606277922472 
loop_ 
_atom_site_label 
_atom_site_type_symbol 
_atom_site_fract_x 
_atom_site_fract_y 
_atom_site_fract_z 
_atom_site_charge 
N1          N  0.35883501  0.26882784  0.67591707    -0.27540
N2          N  0.33823928  0.26663421  0.69338775    -0.35400
C3          C  0.31995797  0.26596866  0.67027164     0.00800
C4          C  0.32920331  0.26786463  0.63615959     0.06830
C5          C  0.35402615  0.26999565  0.64110353    -0.06270
H6          H  0.30123545  0.26404948  0.67788178     0.07490
H7          H  0.36772273  0.27258340  0.62118820     0.08690
Cu8        Cu  0.33574535  0.26563464  0.74809876     0.44170
Cu9        Cu  0.39261801  0.26894686  0.70094526     0.41990
Cu10       Cu  0.39140062  0.26601863  0.79774537     0.43880
N11         N  0.33675458  0.26755234  0.80279474    -0.34930
N12         N  0.35686744  0.26775868  0.82129657    -0.29180
C13         C  0.35093843  0.26924270  0.85591830    -0.05280
C14         C  0.32590227  0.27026923  0.85931376     0.06940
C15         C  0.31765910  0.26893542  0.82495341     0.00730
H16         H  0.36389718  0.26902516  0.87705873     0.08380
H17         H  0.29904877  0.26895157  0.81658967     0.07460
N18         N  0.42330775  0.26521504  0.76702392    -0.36370
N19         N  0.42376200  0.26653622  0.73210257    -0.28550
C20         C  0.44697753  0.26609331  0.72081486    -0.03790
C21         C  0.46201964  0.26418343  0.74979640     0.04820
C22         C  0.44621568  0.26385422  0.77864527     0.02910
H23         H  0.45256550  0.26714625  0.69340237     0.08020
H24         H  0.45102286  0.26332061  0.80624060     0.06850
N25         N  0.67299981  0.27034879  0.67829556    -0.27540
N26         N  0.69330383  0.26866658  0.69605878    -0.35400
C27         C  0.71213767  0.26909166  0.67318877     0.00800
C28         C  0.70348912  0.27147965  0.63915591     0.06830
C29         C  0.67849524  0.27201102  0.64361955    -0.06270
H30         H  0.73069358  0.26711153  0.68086788     0.07490
H31         H  0.66520725  0.27332446  0.62303897     0.08690
Cu32       Cu  0.69453751  0.26623530  0.75088532     0.44170
Cu33       Cu  0.63863504  0.26962969  0.70237605     0.41990
Cu34       Cu  0.63721673  0.26950207  0.79871203     0.43880
N35         N  0.69180621  0.26755369  0.80581399    -0.34930
N36         N  0.67117877  0.26963038  0.82331529    -0.29180
C37         C  0.67599196  0.27124405  0.85810076    -0.05280
C38         C  0.70085164  0.26959141  0.86308108     0.06940
C39         C  0.71010141  0.26744294  0.82897071     0.00730
H40         H  0.66226614  0.27390837  0.87795171     0.08380
H41         H  0.72887143  0.26581136  0.82140351     0.07460
N42         N  0.60595554  0.26821809  0.76751264    -0.36370
N43         N  0.60656431  0.26841598  0.73251772    -0.28550
C44         C  0.58372816  0.26773653  0.72047024    -0.03790
C45         C  0.56776842  0.26723392  0.74909482     0.04820
C46         C  0.58266424  0.26730371  0.77846508     0.02910
H47         H  0.57911223  0.26738991  0.69278388     0.08020
H48         H  0.57691800  0.26701985  0.80587546     0.06850
N49         N  0.17253319  0.26748483  0.17957396    -0.27540
N50         N  0.19174154  0.26195583  0.19719756    -0.35400
C51         C  0.21020463  0.25910138  0.17438796     0.00800
C52         C  0.20254825  0.26305999  0.14029258     0.06830
C53         C  0.17850796  0.26868167  0.14499460    -0.06270
H54         H  0.22802626  0.25464288  0.18233720     0.07490
H55         H  0.16630470  0.27394322  0.12520993     0.08690
Cu56       Cu  0.19246326  0.25995997  0.25182674     0.44170
Cu57       Cu  0.13894681  0.27224683  0.20430005     0.41990
Cu58       Cu  0.13688826  0.26677737  0.30134359     0.43880
N59         N  0.19080583  0.26051402  0.30659359    -0.34930
N60         N  0.17068597  0.26278400  0.32530884    -0.29180
C61         C  0.17639192  0.26309025  0.35997539    -0.05280
C62         C  0.20127146  0.26092337  0.36302476     0.06940
C63         C  0.20968180  0.25952530  0.32854864     0.00730
H64         H  0.16357482  0.26559936  0.38126120     0.08380
H65         H  0.22831562  0.25833204  0.31997276     0.07460
N66         N  0.10624497  0.27089071  0.26966694    -0.36370
N67         N  0.10709610  0.27308229  0.23489547    -0.28550
C68         C  0.08436619  0.27477609  0.22280446    -0.03790
C69         C  0.06823957  0.27378750  0.25115386     0.04820
C70         C  0.08290013  0.27113163  0.28036255     0.02910
H71         H  0.07990252  0.27579755  0.19512933     0.08020
H72         H  0.07695666  0.26924418  0.30746512     0.06850
N73         N  0.85926429  0.26609725  0.17485248    -0.27540
N74         N  0.83907990  0.26481866  0.19371058    -0.35400
C75         C  0.82011878  0.26384563  0.17189088     0.00800
C76         C  0.82847488  0.26429712  0.13728749     0.06830
C77         C  0.85347860  0.26589398  0.14021074    -0.06270
H78         H  0.80149233  0.26301027  0.18065474     0.07490
H79         H  0.86642793  0.26743258  0.11880790     0.08690
Cu80       Cu  0.83759911  0.26474730  0.24843571     0.44170
Cu81       Cu  0.89345494  0.26848681  0.19865635     0.41990
Cu82       Cu  0.89256278  0.26784494  0.29678630     0.43880
N83         N  0.83851285  0.26470616  0.30314501    -0.34930
N84         N  0.85860523  0.26588556  0.32151161    -0.29180
C85         C  0.85277326  0.26621423  0.35627839    -0.05280
C86         C  0.82776970  0.26504489  0.35985771     0.06940
C87         C  0.81948195  0.26424722  0.32546493     0.00730
H88         H  0.86569668  0.26802527  0.37723598     0.08380
H89         H  0.80086204  0.26376442  0.31718572     0.07460
N90         N  0.92400019  0.26931637  0.26549703    -0.36370
N91         N  0.92453594  0.26975853  0.23046650    -0.28550
C92         C  0.94784072  0.27060248  0.21952885    -0.03790
C93         C  0.96271809  0.27035633  0.24890388     0.04820
C94         C  0.94682342  0.26976094  0.27749415     0.02910
H95         H  0.95360252  0.27099750  0.19212986     0.08020
H96         H  0.95147697  0.26983074  0.30517303     0.06850
N97         N  0.29532981  0.14818330  0.01972215    -0.27540
N98         N  0.31092244  0.15615727  0.04147135    -0.35400
C99         C  0.30761218  0.17518498  0.04312581     0.00800
C100        C  0.28925830  0.18005129  0.02076898     0.06830
C101        C  0.28160223  0.16252193  0.00618343    -0.06270
H102        H  0.31901400  0.18494493  0.05788887     0.07490
H103        H  0.26819119  0.16050155  0.98595309     0.08690
Cu104      Cu  0.33969894  0.14313444  0.06318340     0.44170
Cu105      Cu  0.29657124  0.11811542  0.01118805     0.41990
Cu106      Cu  0.34864944  0.09525570  0.06238583     0.43880
N107        N  0.36980605  0.13202211  0.08464493    -0.34930
N108        N  0.37347575  0.11326908  0.08587514    -0.29180
C109        C  0.39391460  0.10995111  0.10371177    -0.05280
C110        C  0.40314918  0.12772169  0.11424761     0.06940
C111        C  0.38761077  0.14137324  0.10101308     0.00730
H112        H  0.40117488  0.09577530  0.10925044     0.08380
H113        H  0.38892326  0.15693389  0.10315362     0.07460
N114        N  0.32185296  0.08096760  0.03510206    -0.36370
N115        N  0.30404725  0.08835997  0.01623446    -0.28550
C116        C  0.29145729  0.07356938  0.00195951    -0.03790
C117        C  0.30182738  0.05630577  0.01263185     0.04820
C118        C  0.32086339  0.06163577  0.03356947     0.02910
H119        H  0.27584383  0.07526276  0.98535501     0.08020
H120        H  0.33354359  0.05209183  0.04628861     0.06850
C121        C  0.26216844  0.27361328  0.01434201     0.00320
C122        C  0.27330747  0.26103436  0.99143246     0.00310
N123        N  0.23340451  0.38464599  0.97850850    -0.27540
N124        N  0.22401719  0.37710139  0.94955319    -0.35400
C125        C  0.22774342  0.35806581  0.94871416     0.00800
C126        C  0.23905493  0.35275039  0.97926332     0.06830
C127        C  0.24307083  0.37003454  0.99736237    -0.06270
H128        H  0.22155381  0.34873635  0.92773209     0.07490
H129        H  0.25151121  0.37173805  0.02282669     0.08690
Cu130      Cu  0.19968968  0.38942075  0.91670132     0.44170
Cu131      Cu  0.23162001  0.41449939  0.98994933     0.41990
Cu132      Cu  0.18922755  0.43633612  0.92812473     0.43880
N133        N  0.16787179  0.40084362  0.90039096    -0.34930
N134        N  0.16376101  0.41937938  0.90524556    -0.29180
C135        C  0.14197972  0.42385009  0.89271942    -0.05280
C136        C  0.13196833  0.40707757  0.87952162     0.06940
C137        C  0.14876620  0.39268560  0.88473158     0.00730
H138        H  0.13450254  0.43828577  0.89185151     0.08380
H139        H  0.14769568  0.37773953  0.87635044     0.07460
N140        N  0.21256480  0.45147412  0.95876776    -0.36370
N141        N  0.22653522  0.44452339  0.98383415    -0.28550
C142        C  0.23506496  0.45967139  0.00276816    -0.03790
C143        C  0.22566733  0.47659883  0.98860324     0.04820
C144        C  0.21208984  0.47072955  0.96041245     0.02910
H145        H  0.24610366  0.45842164  0.02604653     0.08020
H146        H  0.20107961  0.47973678  0.94371884     0.06850
C147        C  0.76066933  0.26248280  0.98889632     0.00320
C148        C  0.77286199  0.27554535  0.00947295     0.00310
N149        N  0.73846177  0.15034109  0.01742175    -0.27540
N150        N  0.73044573  0.15523715  0.04920210    -0.35400
C151        C  0.73481861  0.17400878  0.05507341     0.00800
C152        C  0.74497361  0.18191599  0.02490322     0.06830
C153        C  0.74762906  0.16630057  0.00176492    -0.06270
H154        H  0.72944732  0.18140411  0.07901685     0.07490
H155        H  0.75422479  0.16677440  0.97476701     0.08690
Cu156      Cu  0.70449123  0.14018776  0.07659412     0.44170
Cu157      Cu  0.73339266  0.12237466  0.99729313     0.41990
Cu158      Cu  0.67329660  0.10732725  0.02150487     0.43880
N159        N  0.66841523  0.13402304  0.08289971    -0.34930
N160        N  0.65648709  0.12244146  0.06144047    -0.29180
C161        C  0.63345382  0.12111143  0.07255769    -0.05280
C162        C  0.63087820  0.13274639  0.10203274     0.06940
C163        C  0.65324856  0.14079968  0.10786454     0.00730
H164        H  0.61996436  0.11176545  0.06103801     0.08380
H165        H  0.65835870  0.15022239  0.12939933     0.07460
N166        N  0.69880780  0.08887338  0.00093597    -0.36370
N167        N  0.72132204  0.09372800  0.99301995    -0.28550
C168        C  0.73429554  0.07734711  0.98843560    -0.03790
C169        C  0.71904520  0.06165126  0.99404094     0.04820
C170        C  0.69681132  0.06957780  0.00183215     0.02910
H171        H  0.75364452  0.07689090  0.98445397     0.08020
H172        H  0.68080966  0.06189018  0.01058939     0.06850
N173        N  0.79288306  0.38895215  0.98533774    -0.27540
N174        N  0.80797007  0.38154397  0.96168451    -0.35400
C175        C  0.80384299  0.36267954  0.95775004     0.00800
C176        C  0.78562130  0.35725475  0.98064144     0.06830
C177        C  0.77884068  0.37435098  0.99787346    -0.06270
H178        H  0.81511806  0.35319361  0.94188379     0.07490
H179        H  0.76611531  0.37575271  0.01960930     0.08690
Cu180      Cu  0.83854030  0.39419684  0.94270258     0.44170
Cu181      Cu  0.79558462  0.41851350  0.99913021     0.41990
Cu182      Cu  0.85488025  0.43950981  0.96600561     0.43880
N183        N  0.87098305  0.40514431  0.92710029    -0.34930
N184        N  0.87726173  0.42301577  0.93459120    -0.29180
C185        C  0.89762968  0.42736705  0.91666813    -0.05280
C186        C  0.90424935  0.41124397  0.89690805     0.06940
C187        C  0.88726322  0.39726597  0.90507079     0.00730
H188        H  0.90620037  0.44143769  0.91657653     0.08380
H189        H  0.88621972  0.38263746  0.89510127     0.07460
N190        N  0.82740831  0.45446388  0.99072921    -0.36370
N191        N  0.80601656  0.44794842  0.00148818    -0.28550
C192        C  0.79278238  0.46329105  0.01270098    -0.03790
C193        C  0.80682296  0.47984751  0.00906583     0.04820
C194        C  0.82844285  0.47364483  0.99512529     0.02910
H195        H  0.77438971  0.46247948  0.02245909     0.08020
H196        H  0.84371110  0.48256620  0.98760247     0.06850
O197        O  0.49183872  0.15762167  0.28448253    -0.73190
O198        O  0.54498515  0.15506386  0.21305491    -0.74170
O199        O  0.49399245  0.15500460  0.21059209    -0.62790
O200        O  0.54276589  0.15731384  0.28794531    -0.71200
O201        O  0.54223548  0.12523524  0.29007010    -0.70760
O202        O  0.49408183  0.12291784  0.21413601    -0.62010
O203        O  0.54446581  0.12308453  0.21578768    -0.74520
O204        O  0.49187636  0.12551958  0.28811393    -0.73300
Cu205      Cu  0.51851556  0.15742167  0.24888111     1.04560
Cu206      Cu  0.51825024  0.12309805  0.25213476     1.04330
C207        C  0.48331809  0.14194890  0.29722017     0.93000
C208        C  0.55287717  0.13870025  0.20251704     0.92140
C209        C  0.48617250  0.13848635  0.20063511     0.84290
C210        C  0.54984308  0.14145033  0.30158919     0.90560
N211        N  0.28917063  0.14778431  0.47349725    -0.27540
N212        N  0.29590715  0.15461598  0.44232332    -0.35400
C213        C  0.28964538  0.17316177  0.43977904     0.00800
C214        C  0.27936577  0.17912261  0.47137953     0.06830
C215        C  0.27915318  0.16246267  0.49225358    -0.06270
H216        H  0.29476604  0.18208985  0.41752913     0.07490
H217        H  0.27407959  0.16136511  0.51981947     0.08690
Cu218      Cu  0.32286364  0.14385652  0.41065260     0.44170
Cu219      Cu  0.29574140  0.11889376  0.48800223     0.41990
Cu220      Cu  0.34561320  0.10086863  0.43230608     0.43880
N221        N  0.35732078  0.13672148  0.39538964    -0.34930
N222        N  0.36605013  0.11970013  0.40365220    -0.29180
C223        C  0.38881784  0.11827582  0.39172382    -0.05280
C224        C  0.39482939  0.13548430  0.37515505     0.06940
C225        C  0.37446443  0.14702683  0.37859807     0.00730
H226        H  0.40004693  0.10560909  0.39474185     0.08380
H227        H  0.37229707  0.16189255  0.37055483     0.07460
N228        N  0.32223796  0.08391125  0.46022654    -0.36370
N229        N  0.30490549  0.08949515  0.48224750    -0.28550
C230        C  0.29502616  0.07345413  0.49696416    -0.03790
C231        C  0.30671391  0.05724210  0.48284758     0.04820
C232        C  0.32361296  0.06468913  0.45961722     0.02910
H233        H  0.28100501  0.07367331  0.51704553     0.08020
H234        H  0.33656163  0.05675184  0.44365886     0.06850
N235        N  0.24299298  0.38617915  0.52329150    -0.27540
N236        N  0.22950992  0.37883379  0.54898445    -0.35400
C237        C  0.23381334  0.35994032  0.55202118     0.00800
C238        C  0.25051047  0.35460823  0.52665800     0.06830
C239        C  0.25613495  0.37164126  0.50874899    -0.06270
H240        H  0.22323579  0.35031611  0.56857528     0.07490
H241        H  0.26714698  0.37299744  0.48509515     0.08690
Cu242      Cu  0.19947622  0.39126250  0.57066644     0.44170
Cu243      Cu  0.23952673  0.41534188  0.50860275     0.41990
Cu244      Cu  0.18276225  0.43663076  0.54618196     0.43880
N245        N  0.16532496  0.40107598  0.58032999    -0.34930
N246        N  0.15877348  0.41866151  0.57150104    -0.29180
C247        C  0.13620091  0.42187417  0.58334865    -0.05280
C248        C  0.12800305  0.40515567  0.59979316     0.06940
C249        C  0.14707243  0.39228970  0.59734409     0.00730
H250        H  0.12722913  0.43572182  0.58209748     0.08380
H251        H  0.14806092  0.37791050  0.60842767     0.07460
N252        N  0.21075220  0.45195441  0.52378637    -0.36370
N253        N  0.23075833  0.44494601  0.50911524    -0.28550
C254        C  0.24427781  0.45998692  0.49750383    -0.03790
C255        C  0.23229677  0.47698020  0.50626875     0.04820
C256        C  0.21115598  0.47128807  0.52248776     0.02910
H257        H  0.26161388  0.45867598  0.48430311     0.08020
H258        H  0.19686726  0.48055822  0.53237408     0.06850
C259        C  0.27068234  0.26020009  0.50902634     0.00320
C260        C  0.25849729  0.27365610  0.48943587     0.00310
C261        C  0.75738718  0.26329250  0.50618836     0.00320
C262        C  0.76798623  0.27739036  0.48573679     0.00310
N263        N  0.73177100  0.15241350  0.48688585    -0.27540
N264        N  0.71145496  0.16187432  0.48108074    -0.35400
C265        C  0.71600743  0.18076128  0.47798857     0.00800
C266        C  0.74036486  0.18367785  0.48174471     0.06830
C267        C  0.74995755  0.16547153  0.48818397    -0.06270
H268        H  0.70239943  0.19163924  0.47328148     0.07490
H269        H  0.76868648  0.16197437  0.49273676     0.08690
Cu270      Cu  0.67802362  0.15042864  0.47277568     0.44170
Cu271      Cu  0.73306150  0.12209253  0.48958954     0.41990
Cu272      Cu  0.67755969  0.10244159  0.45067151     0.43880
N273        N  0.64931752  0.13860695  0.44724380    -0.34930
N274        N  0.64936894  0.12021854  0.43813927    -0.29180
C275        C  0.63044458  0.11666086  0.41734977    -0.05280
C276        C  0.61791855  0.13378042  0.41321620     0.06940
C277        C  0.63052923  0.14748497  0.43221849     0.00730
H278        H  0.62717717  0.10305043  0.40405627     0.08380
H279        H  0.62724850  0.16290071  0.43315527     0.07460
N280        N  0.70551388  0.08604087  0.46910565    -0.36370
N281        N  0.72542397  0.09246043  0.48427084    -0.28550
C282        C  0.73827932  0.07701404  0.49518374    -0.03790
C283        C  0.72572151  0.06039948  0.48592604     0.04820
C284        C  0.70515346  0.06670025  0.46970513     0.02910
H285        H  0.75510999  0.07782057  0.50931824     0.08020
H286        H  0.69050174  0.05785874  0.46002906     0.06850
N287        N  0.78947866  0.38907318  0.52108195    -0.27540
N288        N  0.80104620  0.38210793  0.54859470    -0.35400
C289        C  0.79670720  0.36316870  0.55170458     0.00800
C290        C  0.78215418  0.35752963  0.52434214     0.06830
C291        C  0.77753557  0.37433626  0.50548973    -0.06270
H292        H  0.80573157  0.35380240  0.57021337     0.07490
H293        H  0.76804127  0.37542108  0.48075109     0.08690
Cu294      Cu  0.82901918  0.39555812  0.57300224     0.44170
Cu295      Cu  0.79443913  0.41785135  0.50510631     0.41990
Cu296      Cu  0.85354831  0.43709065  0.53474275     0.43880
N297        N  0.86292587  0.40504288  0.58433412    -0.34930
N298        N  0.87251548  0.42070046  0.57022351    -0.29180
C299        C  0.89437097  0.42366030  0.58432787    -0.05280
C300        C  0.89853591  0.40902377  0.60848231     0.06940
C301        C  0.87844039  0.39723191  0.60703050     0.00730
H302        H  0.90595166  0.43586011  0.57834110     0.08380
H303        H  0.87513267  0.38395807  0.62129792     0.07460
N304        N  0.82711016  0.45308318  0.51057349    -0.36370
N305        N  0.80556123  0.44680604  0.50080666    -0.28550
C306        C  0.79229394  0.46219954  0.49082945    -0.03790
C307        C  0.80632586  0.47867251  0.49460589     0.04820
C308        C  0.82815996  0.47234442  0.50700176     0.02910
H309        H  0.77365488  0.46152846  0.48274017     0.08020
H310        H  0.84335751  0.48121788  0.51459421     0.06850
O311        O  0.03989466  0.41818835  0.70549748    -0.73190
O312        O  0.99101256  0.42194977  0.78298144    -0.74170
O313        O  0.04165913  0.42015273  0.77919003    -0.62790
O314        O  0.98944029  0.41995034  0.70852102    -0.71200
O315        O  0.98806069  0.38779754  0.71082747    -0.70760
O316        O  0.03932997  0.38812376  0.78378864    -0.62010
O317        O  0.98857213  0.38984470  0.78474239    -0.74520
O318        O  0.03917318  0.38610352  0.70957376    -0.73300
Cu319      Cu  0.01552756  0.42119007  0.74397801     1.04560
Cu320      Cu  0.01370923  0.38680608  0.74731210     1.04330
C321        C  0.04764952  0.40159746  0.69596807     0.93000
C322        C  0.98194021  0.40647709  0.79579053     0.92140
C323        C  0.04886156  0.40424818  0.79235886     0.84290
C324        C  0.98055376  0.40384286  0.69856181     0.90560
N325        N  0.36013691  0.76950342  0.17376928    -0.27540
N326        N  0.33957705  0.76876778  0.19179757    -0.35400
C327        C  0.32112134  0.76792629  0.16896867     0.00800
C328        C  0.33022312  0.76805196  0.13455501     0.06830
C329        C  0.35519554  0.76872712  0.13895256    -0.06270
H330        H  0.30232976  0.76753268  0.17697960     0.07490
H331        H  0.36899047  0.76834151  0.11862364     0.08690
Cu332      Cu  0.33728379  0.76863868  0.24682655     0.44170
Cu333      Cu  0.39405063  0.77270640  0.19757794     0.41990
Cu334      Cu  0.39295826  0.77895439  0.29292720     0.43880
N335        N  0.33959924  0.76978830  0.30172877    -0.34930
N336        N  0.35952915  0.77475283  0.31830519    -0.29180
C337        C  0.35485941  0.77532724  0.35327722    -0.05280
C338        C  0.33099736  0.76967391  0.35961822     0.06940
C339        C  0.32195924  0.76654814  0.32584687     0.00730
H340        H  0.36798794  0.78010690  0.37216355     0.08380
H341        H  0.30382341  0.76223340  0.31909310     0.07460
N342        N  0.42486248  0.77901904  0.26257007    -0.36370
N343        N  0.42528574  0.77678512  0.22782689    -0.28550
C344        C  0.44846726  0.77707625  0.21643698    -0.03790
C345        C  0.46357529  0.77919630  0.24538165     0.04820
C346        C  0.44775712  0.78061979  0.27408597     0.02910
H347        H  0.45381475  0.77604362  0.18895139     0.08020
H348        H  0.45259358  0.78231140  0.30154373     0.06850
N349        N  0.67280593  0.77583332  0.17897611    -0.27540
N350        N  0.69224009  0.76971686  0.19532065    -0.35400
C351        C  0.71005003  0.76693168  0.17128966     0.00800
C352        C  0.70168882  0.77161511  0.13769696     0.06830
C353        C  0.67794943  0.77759170  0.14430416    -0.06270
H354        H  0.72793914  0.76213914  0.17816936     0.07490
H355        H  0.66519833  0.78352039  0.12613108     0.08690
Cu356      Cu  0.69376359  0.76742842  0.25009509     0.44170
Cu357      Cu  0.63964425  0.78067616  0.20458434     0.41990
Cu358      Cu  0.63820199  0.77746392  0.30048454     0.43880
N359        N  0.69202373  0.76955834  0.30498596    -0.34930
N360        N  0.67215234  0.77327842  0.32355207    -0.29180
C361        C  0.67796627  0.77449588  0.35807790    -0.05280
C362        C  0.70268142  0.77169694  0.36128043     0.06940
C363        C  0.71084544  0.76841340  0.32705292     0.00730
H364        H  0.66529092  0.77778663  0.37919286     0.08380
H365        H  0.72922814  0.76558228  0.31865054     0.07460
N366        N  0.60712229  0.78093447  0.26973955    -0.36370
N367        N  0.60776307  0.78193845  0.23480841    -0.28550
C368        C  0.58496670  0.78299671  0.22280736    -0.03790
C369        C  0.56904451  0.78295763  0.25141641     0.04820
C370        C  0.58384605  0.78150720  0.28075436     0.02910
H371        H  0.58026269  0.78347337  0.19515101     0.08020
H372        H  0.57808396  0.78016797  0.30803884     0.06850
N373        N  0.17378271  0.76953859  0.67598836    -0.27540
N374        N  0.19369350  0.77063021  0.69484493    -0.35400
C375        C  0.21298386  0.77118476  0.67302407     0.00800
C376        C  0.20515729  0.77057493  0.63842218     0.06830
C377        C  0.18008511  0.76940074  0.64133340    -0.06270
H378        H  0.23149677  0.77164803  0.68179358     0.07490
H379        H  0.16744296  0.76776580  0.61996175     0.08690
Cu380      Cu  0.19449454  0.77052873  0.74955897     0.44170
Cu381      Cu  0.13932622  0.76749972  0.69991128     0.41990
Cu382      Cu  0.13900569  0.76615590  0.79808417     0.43880
N383        N  0.19295631  0.77037167  0.80427423    -0.34930
N384        N  0.17265036  0.76877083  0.82269952    -0.29180
C385        C  0.17801243  0.76885562  0.85744935    -0.05280
C386        C  0.20291103  0.77073365  0.86095123     0.06940
C387        C  0.21166207  0.77146507  0.82653567     0.00730
H388        H  0.16485882  0.76700059  0.87849640     0.08380
H389        H  0.23036534  0.77250487  0.81821874     0.07460
N390        N  0.10792049  0.76526790  0.76678516    -0.36370
N391        N  0.10790263  0.76592335  0.73177806    -0.28550
C392        C  0.08478204  0.76577478  0.72077759    -0.03790
C393        C  0.06938729  0.76523614  0.75007578     0.04820
C394        C  0.08488468  0.76463040  0.77869558     0.02910
H395        H  0.07950256  0.76639161  0.69336638     0.08020
H396        H  0.07987517  0.76361860  0.80631527     0.06850
N397        N  0.86056621  0.77126949  0.67389905    -0.27540
N398        N  0.84002860  0.76989782  0.69178233    -0.35400
C399        C  0.82157596  0.76939502  0.66894530     0.00800
C400        C  0.83062826  0.77057497  0.63456884     0.06830
C401        C  0.85557255  0.77206459  0.63908555    -0.06270
H402        H  0.80284784  0.76810769  0.67695213     0.07490
H403        H  0.86924363  0.77401433  0.61889349     0.08690
Cu404      Cu  0.83795235  0.76969495  0.74669011     0.44170
Cu405      Cu  0.89439103  0.77088007  0.69869234     0.41990
Cu406      Cu  0.89350657  0.76864013  0.79612386     0.43880
N407        N  0.83909262  0.77132399  0.80154322    -0.34930
N408        N  0.85917022  0.77081495  0.82008216    -0.29180
C409        C  0.85325139  0.77165185  0.85481455    -0.05280
C410        C  0.82822830  0.77299777  0.85829490     0.06940
C411        C  0.82004340  0.77260706  0.82377439     0.00730
H412        H  0.86618261  0.77059058  0.87589594     0.08380
H413        H  0.80145713  0.77297196  0.81534171     0.07460
N414        N  0.92509913  0.76717947  0.76484532    -0.36370
N415        N  0.92543293  0.76806314  0.72986734    -0.28550
C416        C  0.94855740  0.76693719  0.71835396    -0.03790
C417        C  0.96365711  0.76508502  0.74728232     0.04820
C418        C  0.94800233  0.76551311  0.77626960     0.02910
H419        H  0.95398351  0.76798321  0.69089568     0.08020
H420        H  0.95295448  0.76472800  0.80380419     0.06850
N421        N  0.29531291  0.88503690  0.52805342    -0.27540
N422        N  0.30526829  0.87805635  0.55684047    -0.35400
C423        C  0.30004774  0.85933819  0.56011677     0.00800
C424        C  0.28699783  0.85340803  0.53115138     0.06830
C425        C  0.28413477  0.87028861  0.51128530    -0.06270
H426        H  0.30759667  0.85041177  0.58058649     0.07490
H427        H  0.27635140  0.87158898  0.48537470     0.08690
Cu428      Cu  0.33457705  0.88939723  0.58125571     0.44170
Cu429      Cu  0.29933187  0.91439173  0.51458506     0.41990
Cu430      Cu  0.34951271  0.93518533  0.56715222     0.43880
N431        N  0.36925515  0.89819805  0.58886233    -0.34930
N432        N  0.37515778  0.91640379  0.58418390    -0.29180
C433        C  0.39822528  0.91907047  0.59340202    -0.05280
C434        C  0.40740864  0.90135674  0.60383775     0.06940
C435        C  0.38842006  0.88843260  0.60047450     0.00730
H436        H  0.40688266  0.93306272  0.59496357     0.08380
H437        H  0.38806978  0.87333732  0.60789804     0.07460
N438        N  0.32300493  0.95065405  0.54315386    -0.36370
N439        N  0.30621691  0.94413328  0.52148901    -0.28550
C440        C  0.29569167  0.95957083  0.50607215    -0.03790
C441        C  0.30663059  0.97624461  0.51893518     0.04820
C442        C  0.32334175  0.96993565  0.54278051     0.02910
H443        H  0.28216225  0.95869448  0.48574262     0.08020
H444        H  0.33633655  0.97869504  0.55676866     0.06850
C445        C  0.27721525  0.77251127  0.49304889     0.00320
C446        C  0.26626529  0.75867386  0.51361302     0.00310
N447        N  0.23764752  0.64836445  0.47214618    -0.27540
N448        N  0.22443238  0.65666521  0.44768113    -0.35400
C449        C  0.22867657  0.67564269  0.44696531     0.00800
C450        C  0.24480036  0.67997981  0.47309052     0.06830
C451        C  0.25065183  0.66231598  0.48834820    -0.06270
H452        H  0.21905284  0.68575176  0.43053035     0.07490
H453        H  0.26215196  0.65999618  0.51085689     0.08690
Cu454      Cu  0.19567979  0.64442891  0.42384731     0.44170
Cu455      Cu  0.23423582  0.61859594  0.48155097     0.41990
Cu456      Cu  0.17970866  0.59728381  0.43566548     0.43880
N457        N  0.16288734  0.63463053  0.40872116    -0.34930
N458        N  0.15661109  0.61635314  0.41151085    -0.29180
C459        C  0.13499345  0.61390198  0.39629597    -0.05280
C460        C  0.12754480  0.63170844  0.38341427     0.06940
C461        C  0.14545578  0.64456480  0.39281190     0.00730
H462        H  0.12581876  0.60015456  0.39377249     0.08380
H463        H  0.14611185  0.65997986  0.38839137     0.07460
N464        N  0.20730795  0.58202221  0.45896915    -0.36370
N465        N  0.22625121  0.58903247  0.47594787    -0.28550
C466        C  0.23985930  0.57402601  0.48676375    -0.03790
C467        C  0.22920675  0.55701767  0.47521951     0.04820
C468        C  0.20854573  0.56267558  0.45823770     0.02910
H469        H  0.25642716  0.57539743  0.50141497     0.08020
H470        H  0.19510980  0.55336788  0.44648789     0.06850
N471        N  0.24654423  0.64811277  0.03302624    -0.27540
N472        N  0.23570441  0.65700818  0.05983232    -0.35400
C473        C  0.24125168  0.67579620  0.05938666     0.00800
C474        C  0.25582055  0.67945118  0.03050417     0.06830
C475        C  0.25894957  0.66153563  0.01417646    -0.06270
H476        H  0.23224410  0.68653122  0.07567837     0.07490
H477        H  0.26746831  0.65884407  0.98877747     0.08690
Cu478      Cu  0.20558845  0.64761256  0.08644206     0.44170
Cu479      Cu  0.24057123  0.61859276  0.02216590     0.41990
Cu480      Cu  0.18416731  0.60328428  0.06637152     0.43880
N481        N  0.17000958  0.64095490  0.09547659    -0.34930
N482        N  0.16175718  0.62364543  0.08776106    -0.29180
C483        C  0.13831878  0.62256237  0.09665272    -0.05280
C484        C  0.13124831  0.64041375  0.10988477     0.06940
C485        C  0.15196706  0.65170926  0.10891946     0.00730
H486        H  0.12776775  0.60942796  0.09535667     0.08380
H487        H  0.15398465  0.66643948  0.11812930     0.07460
N488        N  0.20916610  0.58496889  0.04475312    -0.36370
N489        N  0.22908730  0.58966016  0.02718543    -0.28550
C490        C  0.23945829  0.57313194  0.01525903    -0.03790
C491        C  0.22533688  0.55752753  0.02643006     0.04820
C492        C  0.20647548  0.56579826  0.04505056     0.02910
H493        H  0.25550494  0.57261209  0.99877394     0.08020
H494        H  0.19133735  0.55845579  0.05739354     0.06850
N495        N  0.30022170  0.88391435  0.98702937    -0.27540
N496        N  0.32084077  0.87477216  0.98104381    -0.35400
C497        C  0.31687699  0.85570682  0.97966334     0.00800
C498        C  0.29256584  0.85241529  0.98451452     0.06830
C499        C  0.28246129  0.87057431  0.98993094    -0.06270
H500        H  0.33078753  0.84501441  0.97493553     0.07490
H501        H  0.26360347  0.87385306  0.99455571     0.08690
Cu502      Cu  0.35348164  0.88713394  0.96880426     0.44170
Cu503      Cu  0.29758773  0.91413327  0.98730794     0.41990
Cu504      Cu  0.34973117  0.93487224  0.94103108     0.43880
N505        N  0.38043522  0.89964434  0.93928975    -0.34930
N506        N  0.37867829  0.91761561  0.92814589    -0.29180
C507        C  0.39661822  0.92121153  0.90503970    -0.05280
C508        C  0.41029231  0.90457841  0.90131961     0.06940
C509        C  0.39942791  0.89112295  0.92333377     0.00730
H510        H  0.39864533  0.93454406  0.89038965     0.08380
H511        H  0.40360873  0.87588719  0.92523191     0.07460
N512        N  0.32124218  0.95074737  0.96065302    -0.36370
N513        N  0.30273039  0.94380565  0.97905140    -0.28550
C514        C  0.28944980  0.95883616  0.99118905    -0.03790
C515        C  0.30018643  0.97584961  0.97943798     0.04820
C516        C  0.32013033  0.97009208  0.96010977     0.02910
H517        H  0.27360318  0.95750606  0.00796188     0.08020
H518        H  0.33372306  0.97935557  0.94825969     0.06850
C519        C  0.25822223  0.75972347  0.98917501     0.00320
C520        C  0.26887310  0.77353024  0.01004937     0.00310
C521        C  0.75987417  0.77810213  0.00777290     0.00320
C522        C  0.76937275  0.76394720  0.98619137     0.00310
N523        N  0.73767104  0.89024058  0.97840922    -0.27540
N524        N  0.72981443  0.88490418  0.94703891    -0.35400
C525        C  0.73387235  0.86602743  0.94199479     0.00800
C526        C  0.74384029  0.85852144  0.97221907     0.06830
C527        C  0.74659510  0.87443398  0.99461823    -0.06270
H528        H  0.72856164  0.85827062  0.91853568     0.07490
H529        H  0.75325052  0.87428831  0.02138505     0.08690
Cu530      Cu  0.70560825  0.90023132  0.91806854     0.44170
Cu531      Cu  0.73284121  0.91876773  0.99650269     0.41990
Cu532      Cu  0.67502456  0.93702177  0.96440520     0.43880
N533        N  0.67112864  0.90842518  0.90630252    -0.34930
N534        N  0.65930779  0.92197674  0.92385929    -0.29180
C535        C  0.63710434  0.92372921  0.91037823    -0.05280
C536        C  0.63489216  0.91043821  0.88311097     0.06940
C537        C  0.65667092  0.90069894  0.88190036     0.00730
H538        H  0.62370926  0.93400515  0.91955491     0.08380
H539        H  0.66158486  0.88851559  0.86541579     0.07460
N540        N  0.70007899  0.95357394  0.99026189    -0.36370
N541        N  0.72173732  0.94779357  0.00022903    -0.28550
C542        C  0.73482058  0.96361696  0.00887868    -0.03790
C543        C  0.72040897  0.97981101  0.00434736     0.04820
C544        C  0.69867145  0.97286504  0.99259283     0.02910
H545        H  0.75364032  0.96342717  0.01614643     0.08020
H546        H  0.68350553  0.98134744  0.98373018     0.06850
N547        N  0.78872726  0.65213463  0.02568923    -0.27540
N548        N  0.80027544  0.65960630  0.05288183    -0.35400
C549        C  0.79665077  0.67870339  0.05435373     0.00800
C550        C  0.78255301  0.68389576  0.02628893     0.06830
C551        C  0.77744204  0.66667921  0.00872108    -0.06270
H552        H  0.80592738  0.68837712  0.07217819     0.07490
H553        H  0.76811506  0.66512346  0.98391432     0.08690
Cu554      Cu  0.82836229  0.64663895  0.07755096     0.44170
Cu555      Cu  0.79342864  0.62292110  0.01180920     0.41990
Cu556      Cu  0.85549871  0.60781129  0.03358048     0.43880
N557        N  0.86418905  0.64052163  0.08234048    -0.34930
N558        N  0.87486399  0.62604593  0.06577705    -0.29180
C559        C  0.89800362  0.62517633  0.07598137    -0.05280
C560        C  0.90210949  0.64029803  0.09942627     0.06940
C561        C  0.88017938  0.64970313  0.10261729     0.00730
H562        H  0.91024444  0.61363911  0.06872074     0.08380
H563        H  0.87580919  0.66188958  0.11948084     0.07460
N564        N  0.82861147  0.58948005  0.01662927    -0.36370
N565        N  0.80594108  0.59422492  0.01015306    -0.28550
C566        C  0.79296173  0.57775584  0.00667987    -0.03790
C567        C  0.80831296  0.56207001  0.01125633     0.04820
C568        C  0.83066321  0.57019687  0.01729844     0.02910
H569        H  0.77359813  0.57727965  0.00354330     0.08020
H570        H  0.84707035  0.56262786  0.02397441     0.06850
O571        O  0.03867362  0.66309562  0.21154205    -0.73190
O572        O  0.98683424  0.65791286  0.28499390    -0.74170
O573        O  0.03765796  0.65886908  0.28554218    -0.62790
O574        O  0.98753341  0.66203081  0.21086469    -0.71200
O575        O  0.98916716  0.63006475  0.20421601    -0.70760
O576        O  0.03776348  0.62683491  0.28025646    -0.62010
O577        O  0.98732386  0.62602753  0.27821895    -0.74520
O578        O  0.03961497  0.63107713  0.20612137    -0.73300
Cu579      Cu  0.01260786  0.66164113  0.24839534     1.04560
Cu580      Cu  0.01348869  0.62739979  0.24193993     1.04330
C581        C  0.04751573  0.64779644  0.19762545     0.93000
C582        C  0.97896621  0.64114368  0.29334138     0.92140
C583        C  0.04545761  0.64228966  0.29478791     0.84290
C584        C  0.98046008  0.64646602  0.19596715     0.90560
N585        N  0.79535659  0.65231370  0.48487715    -0.27540
N586        N  0.81455040  0.66179620  0.47317982    -0.35400
C587        C  0.80996048  0.68067365  0.47185276     0.00800
C588        C  0.78666315  0.68382228  0.48326604     0.06830
C589        C  0.77771060  0.66544952  0.49151765    -0.06270
H590        H  0.82305052  0.69145033  0.46369781     0.07490
H591        H  0.75982839  0.66189135  0.50123736     0.08690
Cu592      Cu  0.84708219  0.65070399  0.45874579     0.44170
Cu593      Cu  0.79618082  0.62193596  0.49011521     0.41990
Cu594      Cu  0.85854638  0.60332316  0.46785505     0.43880
N595        N  0.87873052  0.63958820  0.44050706    -0.34930
N596        N  0.88343730  0.62105035  0.44367543    -0.29180
C597        C  0.90322091  0.61679879  0.42435780    -0.05280
C598        C  0.91135047  0.63373279  0.40869860     0.06940
C599        C  0.89526135  0.64786696  0.41935921     0.00730
H600        H  0.91004647  0.60233407  0.41989049     0.08380
H601        H  0.89423970  0.66257379  0.40979859     0.07460
N602        N  0.82906877  0.58678142  0.48161674    -0.36370
N603        N  0.80673967  0.59258215  0.48889021    -0.28550
C604        C  0.79267078  0.57666812  0.49260268    -0.03790
C605        C  0.80692159  0.56043250  0.48664198     0.04820
C606        C  0.82976566  0.56745930  0.48031615     0.02910
H607        H  0.77343259  0.57691125  0.49773743     0.08020
H608        H  0.84574081  0.55911281  0.47391151     0.06850
N609        N  0.74364122  0.89080061  0.52056998    -0.27540
N610        N  0.73395456  0.88498187  0.55078370    -0.35400
C611        C  0.73834399  0.86613250  0.55528649     0.00800
C612        C  0.75084529  0.85939561  0.52609803     0.06830
C613        C  0.75428048  0.87546789  0.50465307    -0.06270
H614        H  0.73021357  0.85744783  0.57598382     0.07490
H615        H  0.76166419  0.87556150  0.47806460     0.08690
Cu616      Cu  0.70642192  0.89914254  0.57634755     0.44170
Cu617      Cu  0.73701857  0.91859031  0.50153579     0.41990
Cu618      Cu  0.67462323  0.93202051  0.52273266     0.43880
N619        N  0.67043424  0.90506772  0.58343454    -0.34930
N620        N  0.65796807  0.91630081  0.56220356    -0.29180
C621        C  0.63502880  0.91728429  0.57406852    -0.05280
C622        C  0.63325688  0.90608469  0.60417282     0.06940
C623        C  0.65589890  0.89841174  0.60918067     0.00730
H624        H  0.62117699  0.92638883  0.56299154     0.08380
H625        H  0.66159487  0.88918092  0.63055903     0.07460
N626        N  0.70060074  0.95107401  0.50476645    -0.36370
N627        N  0.72347160  0.94671051  0.49818035    -0.28550
C628        C  0.73606863  0.96330966  0.49437298    -0.03790
C629        C  0.72038811  0.97869784  0.49962088     0.04820
C630        C  0.69805072  0.97035379  0.50540629     0.02910
H631        H  0.75539995  0.96412466  0.49036777     0.08020
H632        H  0.68129566  0.97772246  0.51149109     0.06850
C633        C  0.75860980  0.77838426  0.49020856     0.00320
C634        C  0.77026751  0.76428368  0.50893323     0.00310
O635        O  0.49496372  0.88080320  0.71114091    -0.73190
O636        O  0.54538569  0.88374097  0.78480422    -0.74170
O637        O  0.49425590  0.88134201  0.78570844    -0.62790
O638        O  0.54567321  0.88336564  0.71052745    -0.71200
O639        O  0.54461277  0.91553112  0.71263157    -0.70760
O640        O  0.49093913  0.91333443  0.78243198    -0.62010
O641        O  0.54156100  0.91578240  0.78646041    -0.74520
O642        O  0.49417060  0.91291723  0.70850657    -0.73300
Cu643      Cu  0.52012295  0.88113223  0.74812880     1.04560
Cu644      Cu  0.51769888  0.91550688  0.74754428     1.04330
C645        C  0.48674232  0.89640722  0.69806868     0.93000
C646        C  0.55158187  0.90024155  0.79683624     0.92140
C647        C  0.48407857  0.89714005  0.79507398     0.84290
C648        C  0.55345028  0.89985385  0.70037450     0.90560
C649        C  0.59070210  0.89729450  0.61662193    -0.09400
C650        C  0.61270741  0.90474878  0.62865170     0.06790
C651        C  0.61490418  0.91066949  0.66413449    -0.03170
C652        C  0.59525016  0.90886407  0.68710551    -0.07620
C653        C  0.57349770  0.90101516  0.67532418     0.05910
C654        C  0.57109321  0.89524745  0.63989802    -0.02650
Br655      Br  0.54117457  0.88534161  0.62217717    -0.02340
H656        H  0.58888953  0.89287957  0.58928165     0.09820
H657        H  0.59693101  0.91359382  0.71431112     0.07840
Br658      Br  0.64377055  0.92228258  0.68225911    -0.02770
C659        C  0.77577771  0.83112261  0.50724574    -0.09400
C660        C  0.75309064  0.83883867  0.51612984     0.06790
C661        C  0.73269281  0.82659373  0.51637915    -0.03170
C662        C  0.73541450  0.80695182  0.50937887    -0.07620
C663        C  0.75811395  0.79898503  0.50161885     0.05910
C664        C  0.77839832  0.81134918  0.49960144    -0.02650
Br665      Br  0.80943467  0.80249537  0.48366807    -0.02340
H666        H  0.79144189  0.84050544  0.50613117     0.09820
H667        H  0.71950760  0.79781821  0.50926700     0.07840
Br668      Br  0.70026944  0.83590324  0.52309524    -0.02770
C669        C  0.78325802  0.71710068  0.46078292    -0.09400
C670        C  0.77609079  0.70345190  0.48637872     0.06790
C671        C  0.76407087  0.71000823  0.51716339    -0.03170
C672        C  0.76073647  0.72990209  0.52251582    -0.07620
C673        C  0.76959738  0.74355368  0.49805385     0.05910
C674        C  0.78102123  0.73691785  0.46689939    -0.02650
Br675      Br  0.79811425  0.75374505  0.43505091    -0.02340
H676        H  0.79280740  0.71237950  0.43715306     0.09820
H677        H  0.75249032  0.73483517  0.54702050     0.07840
Br678      Br  0.75489149  0.69302433  0.55498643    -0.02770
C679        C  0.96093900  0.65299300  0.34924042    -0.09400
C680        C  0.96088945  0.63925417  0.32184733     0.06790
C681        C  0.94441125  0.62367806  0.32334270    -0.03170
C682        C  0.92888363  0.62187334  0.35242173    -0.07620
C683        C  0.92912379  0.63553773  0.37986578     0.05910
C684        C  0.94524286  0.65126953  0.37809893    -0.02650
Br685      Br  0.94767718  0.67020666  0.41513344    -0.02340
H686        H  0.97365468  0.66491405  0.34867658     0.09820
H687        H  0.91605102  0.61003575  0.35307675     0.07840
Br688      Br  0.94091542  0.60515384  0.28575667    -0.02770
C689        C  0.96585724  0.64088212  0.13546601    -0.09400
C690        C  0.96125124  0.64712668  0.17011340     0.06790
C691        C  0.93777460  0.65222446  0.18064441    -0.03170
C692        C  0.91897283  0.65027399  0.15686167    -0.07620
C693        C  0.92319225  0.64348816  0.12223964     0.05910
C694        C  0.94709893  0.63935493  0.11121739    -0.02650
Br695      Br  0.95569191  0.63262026  0.06345784    -0.02340
H696        H  0.98409331  0.63716679  0.12732456     0.09820
H697        H  0.90084463  0.65340174  0.16614078     0.07840
Br698      Br  0.93016345  0.66030667  0.22810739    -0.02770
C699        C  0.59496187  0.89838783  0.80540872    -0.09400
C700        C  0.57211961  0.90156079  0.82024611     0.06790
C701        C  0.56973455  0.90753745  0.85553396    -0.03170
C702        C  0.59042517  0.91004871  0.87581713    -0.07620
C703        C  0.61355839  0.90711880  0.86094474     0.05910
C704        C  0.61568702  0.90149041  0.82506110    -0.02650
Br705      Br  0.64577308  0.90001120  0.79940037    -0.02340
H706        H  0.59669572  0.89438641  0.77776329     0.09820
H707        H  0.58839078  0.91436663  0.90321977     0.07840
Br708      Br  0.53866444  0.91223744  0.87678889    -0.02770
C709        C  0.79478349  0.73592706  0.00127109    -0.09400
C710        C  0.77136153  0.74333615  0.99767293     0.06790
C711        C  0.75149699  0.73052205  0.00163291    -0.03170
C712        C  0.75551250  0.71103389  0.00994794    -0.07620
C713        C  0.77894996  0.70394158  0.01422532     0.05910
C714        C  0.79873363  0.71654482  0.00930546    -0.02650
Br715      Br  0.83171046  0.70801909  0.01109560    -0.02340
H716        H  0.81026468  0.74532713  0.99754181     0.09820
H717        H  0.74024172  0.70139220  0.01342501     0.07840
Br718      Br  0.71862633  0.73782597  0.99394822    -0.02770
C719        C  0.73952297  0.80340304  0.97270777    -0.09400
C720        C  0.75835066  0.79851178  0.99532623     0.06790
C721        C  0.77264452  0.81344186  0.00970368    -0.03170
C722        C  0.76787876  0.83278139  0.00136083    -0.07620
C723        C  0.74842683  0.83775816  0.97977573     0.05910
C724        C  0.73377169  0.82270872  0.96607809    -0.02650
Br725      Br  0.70345682  0.82691803  0.94312048    -0.02340
H726        H  0.72810242  0.79210451  0.96210485     0.09820
H727        H  0.77928824  0.84400995  0.01220382     0.07840
Br728      Br  0.79884447  0.80852359  0.04092851    -0.02770
C729        C  0.42529557  0.90900856  0.84030329    -0.09400
C730        C  0.42882553  0.90104103  0.87391370     0.06790
C731        C  0.44995795  0.89031028  0.88045230    -0.03170
C732        C  0.46741343  0.88827220  0.85370960    -0.07620
C733        C  0.46419667  0.89701362  0.82074756     0.05910
C734        C  0.44274914  0.90709086  0.81381396    -0.02650
Br735      Br  0.43618222  0.91817863  0.76839715    -0.02340
H736        H  0.40888425  0.91684303  0.83457097     0.09820
H737        H  0.48404668  0.88067884  0.85921054     0.07840
Br738      Br  0.45714212  0.87978423  0.92600925    -0.02770
C739        C  0.26658639  0.82830937  0.01495917    -0.09400
C740        C  0.28110731  0.83316740  0.98577194     0.06790
C741        C  0.28751328  0.81864741  0.96110068    -0.03170
C742        C  0.28174169  0.79936395  0.96802508    -0.07620
C743        C  0.26918834  0.79423147  0.99900637     0.05910
C744        C  0.26061874  0.80899103  0.02172477    -0.02650
Br745      Br  0.24162254  0.80354534  0.06312184    -0.02340
H746        H  0.26124380  0.83936499  0.03381582     0.09820
H747        H  0.28832569  0.78823274  0.95019006     0.07840
Br748      Br  0.30448309  0.82422647  0.91776582    -0.02770
C749        C  0.10880221  0.65732755  0.15767628    -0.09400
C750        C  0.10825888  0.64504842  0.12803767     0.06790
C751        C  0.08622353  0.63622511  0.11862040    -0.03170
C752        C  0.06619435  0.63797276  0.14106505    -0.07620
C753        C  0.06739960  0.64908524  0.17199450     0.05910
C754        C  0.08853206  0.65955440  0.17944268    -0.02650
Br755      Br  0.09170078  0.67549621  0.22071382    -0.02340
H756        H  0.12539409  0.66442911  0.16523118     0.09820
H757        H  0.04965922  0.63041352  0.13460250     0.07840
Br758      Br  0.08176793  0.62233368  0.07513864    -0.02770
C759        C  0.23605881  0.70892533  0.00952307    -0.09400
C760        C  0.25765681  0.69887338  0.01470871     0.06790
C761        C  0.27974531  0.70868854  0.01065413    -0.03170
C762        C  0.27986655  0.72851900  0.00263592    -0.07620
C763        C  0.25807931  0.73875561  0.99861158     0.05910
C764        C  0.23601746  0.72858764  0.00190740    -0.02650
Br765      Br  0.20492841  0.74084338  0.00093368    -0.02340
H766        H  0.21892051  0.70157523  0.01322569     0.09820
H767        H  0.29696954  0.73595742  0.99953610     0.07840
Br768      Br  0.30988519  0.69577286  0.01748777    -0.02770
C769        C  0.08486080  0.62486574  0.36881037    -0.09400
C770        C  0.10589468  0.63575413  0.36234337     0.06790
C771        C  0.10591861  0.64970817  0.33500266    -0.03170
C772        C  0.08517116  0.65252943  0.31532730    -0.07620
C773        C  0.06475221  0.64101581  0.32068753     0.05910
C774        C  0.06443388  0.62724746  0.34796120    -0.02650
Br775      Br  0.03645253  0.61173412  0.35818082    -0.02340
H776        H  0.08438250  0.61427707  0.38984996     0.09820
H777        H  0.08554741  0.66293254  0.29403711     0.07840
Br778      Br  0.13402052  0.66360798  0.31886600    -0.02770
C779        C  0.23830779  0.73278224  0.49648391    -0.09400
C780        C  0.26238311  0.73853450  0.50072102     0.06790
C781        C  0.28082538  0.72444080  0.49732807    -0.03170
C782        C  0.27477879  0.70525642  0.48908654    -0.07620
C783        C  0.25065099  0.69973982  0.48484102     0.05910
C784        C  0.23227901  0.71365575  0.48945556    -0.02650
Br785      Br  0.19843907  0.70735845  0.48993749    -0.02340
H786        H  0.22386986  0.74319663  0.49991879     0.09820
H787        H  0.28896505  0.69459967  0.48593389     0.07840
Br788      Br  0.31419950  0.72957025  0.50619530    -0.02770
C789        C  0.42848535  0.88524514  0.65264808    -0.09400
C790        C  0.42960600  0.89808770  0.62397147     0.06790
C791        C  0.45099233  0.90871156  0.61766981    -0.03170
C792        C  0.46986007  0.90754673  0.64169413    -0.07620
C793        C  0.46801051  0.89551211  0.67133544     0.05910
C794        C  0.44745740  0.88384150  0.67621922    -0.02650
Br795      Br  0.44296314  0.86737650  0.71661579    -0.02340
H796        H  0.41224341  0.87702462  0.65815098     0.09820
H797        H  0.48596990  0.91618001  0.63740746     0.07840
Br798      Br  0.45599176  0.92445232  0.57648847    -0.02770
C799        C  0.29802930  0.81866417  0.53677615    -0.09400
C800        C  0.28297368  0.83272716  0.52141029     0.06790
C801        C  0.26493003  0.82639698  0.49789247    -0.03170
C802        C  0.26318524  0.80671283  0.48923423    -0.07620
C803        C  0.27831617  0.79295577  0.50483346     0.05910
C804        C  0.29547075  0.79905910  0.52940620    -0.02650
Br805      Br  0.31628922  0.78140038  0.55345677    -0.02340
H806        H  0.31235729  0.82269448  0.55443206     0.09820
H807        H  0.24965022  0.80208896  0.47063861     0.07840
Br808      Br  0.24112118  0.84325507  0.47833102    -0.02770
C809        C  0.79151797  0.77591338  0.60292759    -0.09400
C810        C  0.81604307  0.77034672  0.60121287     0.06790
C811        C  0.82516384  0.76360650  0.56824728    -0.03170
C812        C  0.81018714  0.76301433  0.53861255    -0.07620
C813        C  0.78575123  0.76841203  0.54051528     0.05910
C814        C  0.77635181  0.77453248  0.57345613    -0.02650
Br815      Br  0.74250618  0.77878492  0.58108775    -0.02340
H816        H  0.78370206  0.78081495  0.62769541     0.09820
H817        H  0.81749773  0.75746343  0.51393208     0.07840
Br818      Br  0.85668498  0.75259454  0.56164388    -0.02770
C819        C  0.79080221  0.76233379  0.88981256    -0.09400
C820        C  0.81282471  0.77239906  0.89102584     0.06790
C821        C  0.81918614  0.78147824  0.92317079    -0.03170
C822        C  0.80433744  0.77938469  0.95336563    -0.07620
C823        C  0.78267801  0.76874003  0.95231627     0.05910
C824        C  0.77587601  0.76050125  0.91971319    -0.02650
Br825      Br  0.74633464  0.74659503  0.91368050    -0.02340
H826        H  0.78527598  0.75539244  0.86552065     0.09820
H827        H  0.81015138  0.78562048  0.97805684     0.07840
Br828      Br  0.84710248  0.79772664  0.92734165    -0.02770
C829        C  0.23915895  0.75892949  0.89260123    -0.10400
C830        C  0.21768729  0.76971189  0.89358433     0.06790
C831        C  0.21123141  0.77927103  0.92537973    -0.03170
C832        C  0.22536072  0.77693467  0.95570525    -0.07620
C833        C  0.24580633  0.76487109  0.95529091     0.05910
C834        C  0.25314344  0.75651020  0.92283396    -0.02650
Br835      Br  0.28268628  0.74227176  0.91767916    -0.02340
H836        H  0.24491135  0.75194212  0.86828149     0.09820
H837        H  0.21974815  0.78386593  0.98014959     0.07840
Br838      Br  0.18394993  0.79623988  0.92877773    -0.02770
C839        C  0.24168837  0.75722722  0.60846764    -0.09400
C840        C  0.22097304  0.76881214  0.60638846     0.06790
C841        C  0.21635102  0.77840770  0.57426898    -0.03170
C842        C  0.23191184  0.77578933  0.54499245    -0.07620
C843        C  0.25242382  0.76381983  0.54691399     0.05910
C844        C  0.25711854  0.75453961  0.57934550    -0.02650
Br845      Br  0.28403571  0.73766937  0.58606773    -0.02340
H846        H  0.24565036  0.74972510  0.63281634     0.09820
H847        H  0.22745331  0.78260275  0.52019890     0.07840
Br848      Br  0.18973502  0.79582676  0.56910369    -0.02770
C849        C  0.00292053  0.77475620  0.77438560    -0.09400
C850        C  0.99071580  0.76452906  0.74781387     0.06790
C851        C  0.00471288  0.75424241  0.72252300    -0.03170
C852        C  0.03009108  0.75474381  0.72378878    -0.07620
C853        C  0.04230238  0.76511792  0.75020804     0.05910
C854        C  0.02826752  0.77526063  0.77568335    -0.02650
Br855      Br  0.04223040  0.79154041  0.81121838    -0.02340
H856        H  0.99266416  0.78292546  0.79384390     0.09820
H857        H  0.04036378  0.74662849  0.70426861     0.07840
Br858      Br  0.99048620  0.73799539  0.68717993    -0.02770
C859        C  0.75247977  0.78420359  0.42613734    -0.09400
C860        C  0.74489273  0.77449923  0.45690432     0.06790
C861        C  0.72277062  0.76432096  0.45624043    -0.03170
C862        C  0.70936608  0.76344402  0.42489416    -0.07620
C863        C  0.71740280  0.77278159  0.39392241     0.05910
C864        C  0.73916800  0.78340667  0.39498662    -0.02650
Br865      Br  0.75057754  0.79890224  0.35618417    -0.02340
H866        H  0.76875362  0.79290204  0.42660109     0.09820
H867        H  0.69241523  0.75561892  0.42483695     0.07840
Br868      Br  0.70877241  0.75309424  0.49796223    -0.02770
C869        C  0.74124990  0.76827222  0.10421028    -0.09400
C870        C  0.71601078  0.77146167  0.10343093     0.06790
C871        C  0.70559661  0.77453617  0.06978495    -0.03170
C872        C  0.72036404  0.77672996  0.03983846    -0.07620
C873        C  0.74542265  0.77388596  0.04078455     0.05910
C874        C  0.75573644  0.76893341  0.07340387    -0.02650
Br875      Br  0.78939726  0.76319131  0.07797053    -0.02340
H876        H  0.75009644  0.76527407  0.12887715     0.09820
H877        H  0.71185335  0.77985485  0.01493113     0.07840
Br878      Br  0.67167061  0.77386690  0.06003444    -0.02770
C879        C  0.29221999  0.75973144  0.10214558    -0.09400
C880        C  0.31570207  0.76769978  0.10119984     0.06790
C881        C  0.32378453  0.77607602  0.06904938    -0.03170
C882        C  0.30877012  0.77612522  0.03949471    -0.07620
C883        C  0.28495633  0.76901842  0.04091267     0.05910
C884        C  0.27677821  0.76065405  0.07292113    -0.02650
Br885      Br  0.24417280  0.75209883  0.08019382    -0.02340
H886        H  0.28536943  0.75325704  0.12625954     0.09820
H887        H  0.31540078  0.78287297  0.01547315     0.07840
Br888      Br  0.35346935  0.79020638  0.06379983    -0.02770
C889        C  0.31545730  0.76819959  0.45871831    -0.09400
C890        C  0.29016615  0.76845244  0.45885101     0.06790
C891        C  0.27832687  0.76817148  0.42613820    -0.03170
C892        C  0.29184506  0.76839740  0.39438709    -0.07620
C893        C  0.31739153  0.76824908  0.39422341     0.05910
C894        C  0.32899481  0.76702059  0.42736900    -0.02650
Br895      Br  0.36275350  0.76188664  0.43342688    -0.02340
H896        H  0.32496643  0.76859814  0.48344444     0.09820
H897        H  0.28213358  0.76906471  0.36980093     0.07840
Br898      Br  0.24378557  0.76840230  0.42346808    -0.02770
C899        C  0.50195598  0.79216108  0.27106674    -0.09400
C900        C  0.49065176  0.78006958  0.24616869     0.06790
C901        C  0.50558033  0.76893781  0.22328310    -0.03170
C902        C  0.53084615  0.77039015  0.22519218    -0.07620
C903        C  0.54207035  0.78239394  0.25015594     0.05910
C904        C  0.52725798  0.79341448  0.27320067    -0.02650
Br905      Br  0.54043084  0.81143525  0.30652002    -0.02340
H906        H  0.49104272  0.80096730  0.28873609     0.09820
H907        H  0.54184740  0.76157956  0.20763335     0.07840
Br908      Br  0.49308499  0.75004661  0.19100440    -0.02770
C909        C  0.80625038  0.50816968  0.45824401    -0.09400
C910        C  0.79979620  0.49910570  0.48998401     0.06790
C911        C  0.79200725  0.51042864  0.51895354    -0.03170
C912        C  0.79206511  0.53066529  0.51645257    -0.07620
C913        C  0.80031189  0.53976233  0.48550280     0.05910
C914        C  0.80658051  0.52833428  0.45580460    -0.02650
Br915      Br  0.81698848  0.53955879  0.41181134    -0.02340
H916        H  0.81249908  0.49957196  0.43597496     0.09820
H917        H  0.78751293  0.53926435  0.53955383     0.07840
Br918      Br  0.78357888  0.49886329  0.56343591    -0.02770
C919        C  0.94241746  0.41248364  0.61857031    -0.09400
C920        C  0.91958590  0.40689720  0.63155360     0.06790
C921        C  0.91737688  0.39988604  0.66655554    -0.03170
C922        C  0.93788056  0.39808723  0.68719924    -0.07620
C923        C  0.96042418  0.40391312  0.67426173     0.05910
C924        C  0.96276884  0.41123891  0.63984409    -0.02650
Br925      Br  0.99336045  0.41944348  0.62087428    -0.02340
H926        H  0.94444288  0.41790989  0.59187123     0.09820
H927        H  0.93604683  0.39304984  0.71421455     0.07840
Br928      Br  0.88706189  0.39478631  0.68993437    -0.02770
C929        C  0.73953413  0.00769866  0.47258689    -0.09400
C930        C  0.72604905  0.99959590  0.50047746     0.06790
C931        C  0.71645010  0.01190372  0.52701861    -0.03170
C932        C  0.71868050  0.03195660  0.52361007    -0.07620
C933        C  0.73049583  0.04004185  0.49426332     0.05910
C934        C  0.74157650  0.02780488  0.46916435    -0.02650
Br935      Br  0.75767548  0.03803417  0.42816775    -0.02340
H936        H  0.74713960  0.99844551  0.45218485     0.09820
H937        H  0.70996908  0.04130440  0.54292149     0.07840
Br938      Br  0.70005580  0.00233097  0.56845544    -0.02770
C939        C  0.76403594  0.20875405  0.51272772    -0.09400
C940        C  0.75180514  0.20289533  0.48235283     0.06790
C941        C  0.74608037  0.21676434  0.45650176    -0.03170
C942        C  0.74980955  0.23637273  0.46335668    -0.07620
C943        C  0.75919809  0.24247346  0.49583315     0.05910
C944        C  0.76787153  0.22841223  0.51955499    -0.02650
Br945      Br  0.78460626  0.23517950  0.56193852    -0.02340
H946        H  0.76896390  0.19818007  0.53244556     0.09820
H947        H  0.74358237  0.24692654  0.44443452     0.07840
Br948      Br  0.73179999  0.20978536  0.41223962    -0.02770
C949        C  0.79358701  0.30510805  0.50178030    -0.09400
C950        C  0.77010131  0.29789226  0.49770284     0.06790
C951        C  0.75035174  0.31072964  0.50164010    -0.03170
C952        C  0.75457618  0.33028513  0.50954682    -0.07620
C953        C  0.77814754  0.33730473  0.51350457     0.05910
C954        C  0.79777901  0.32453191  0.50914128    -0.02650
Br955      Br  0.83090688  0.33284176  0.51027332    -0.02340
H956        H  0.80895823  0.29557947  0.49839232     0.09820
H957        H  0.73941370  0.34002683  0.51283292     0.07840
Br958      Br  0.71746779  0.30301452  0.49481234    -0.02770
C959        C  0.23793043  0.50323335  0.46280222    -0.09400
C960        C  0.23852121  0.49716745  0.49804718     0.06790
C961        C  0.24002024  0.51109511  0.52523016    -0.03170
C962        C  0.23921101  0.53080302  0.51705469    -0.07620
C963        C  0.23628506  0.53683560  0.48204126     0.05910
C964        C  0.23660537  0.52292402  0.45464349    -0.02650
Br965      Br  0.23432305  0.53000758  0.40576744    -0.02340
H966        H  0.23668365  0.49263208  0.44175457     0.09820
H967        H  0.23905511  0.54134212  0.53830194     0.07840
Br968      Br  0.24164948  0.50380439  0.57405445    -0.02770
C969        C  0.10780355  0.39171741  0.65292109    -0.09400
C970        C  0.10612567  0.40278353  0.62192027     0.06790
C971        C  0.08411581  0.41202976  0.61413114    -0.03170
C972        C  0.06498477  0.41111414  0.63836906    -0.07620
C973        C  0.06708584  0.40056295  0.66969980     0.05910
C974        C  0.08850027  0.39048948  0.67669516    -0.02650
Br975      Br  0.09330069  0.37652499  0.71989327    -0.02340
H976        H  0.12454310  0.38463834  0.65964582     0.09820
H977        H  0.04838699  0.41871019  0.63278407     0.07840
Br978      Br  0.07836134  0.42525337  0.57048513    -0.02770
C979        C  0.23284624  0.32311631  0.51126718    -0.09400
C980        C  0.25371825  0.33439145  0.51491574     0.06790
C981        C  0.27646495  0.32556865  0.51113802    -0.03170
C982        C  0.27793874  0.30563346  0.50415039    -0.07620
C983        C  0.25688838  0.29435270  0.50050278     0.05910
C984        C  0.23416826  0.30339359  0.50441397    -0.02650
Br985      Br  0.20398198  0.28967841  0.50353760    -0.02340
H986        H  0.21519486  0.32967164  0.51447818     0.09820
H987        H  0.29551599  0.29901646  0.50069739     0.07840
Br988      Br  0.30575591  0.33998274  0.51651023    -0.02770
C989        C  0.32657821  0.02563584  0.48984299    -0.09400
C990        C  0.30512465  0.03641922  0.49215342     0.06790
C991        C  0.28337196  0.02668690  0.50070834    -0.03170
C992        C  0.28372923  0.00671964  0.50783324    -0.07620
C993        C  0.30542415  0.99627184  0.50595976     0.05910
C994        C  0.32681779  0.00585194  0.49574839    -0.02650
Br995      Br  0.35700953  0.99267605  0.48784997    -0.02340
H996        H  0.34356804  0.03257087  0.48329968     0.09820
H997        H  0.26717183  0.99943395  0.51551439     0.07840
Br998      Br  0.25268531  0.03944742  0.50144181    -0.02770
C999        C  0.28958145  0.21387380  0.46329064    -0.09400
C1000       C  0.27582642  0.19980198  0.48151179     0.06790
C1001       C  0.25944686  0.20609628  0.50805925    -0.03170
C1002       C  0.25787959  0.22585164  0.51642648    -0.07620
C1003       C  0.27156559  0.23963681  0.49775718     0.05910
C1004       C  0.28723246  0.23350426  0.47060624    -0.02650
Br1005     Br  0.30665784  0.25114564  0.44335135    -0.02340
H1006       H  0.30275371  0.20978629  0.44339485     0.09820
H1007       H  0.24566712  0.23055259  0.53729099     0.07840
Br1008     Br  0.23770346  0.18896829  0.53237288    -0.02770
C1009       C  0.56314204  0.12661472  0.35691128    -0.09400
C1010       C  0.56625371  0.14132896  0.33176600     0.06790
C1011       C  0.58528325  0.15470334  0.33556016    -0.03170
C1012       C  0.60134600  0.15260872  0.36351868    -0.07620
C1013       C  0.59881215  0.13726814  0.38753486     0.05910
C1014       C  0.57916603  0.12451177  0.38463956    -0.02650
Br1015     Br  0.57296430  0.10424315  0.41815645    -0.02340
H1016       H  0.54824036  0.11652115  0.35481284     0.09820
H1017       H  0.61655394  0.16240892  0.36544106     0.07840
Br1018     Br  0.59170514  0.17483061  0.30185102    -0.02770
C1019       C  0.44190140  0.15270844  0.30873916    -0.09400
C1020       C  0.46220145  0.14272791  0.32054876     0.06790
C1021       C  0.46090681  0.13203302  0.35197129    -0.03170
C1022       C  0.43902669  0.13086294  0.37042529    -0.07620
C1023       C  0.41809805  0.13979395  0.35747480     0.05910
C1024       C  0.41978845  0.15107946  0.32641699    -0.02650
Br1025     Br  0.39260311  0.16248415  0.30335420    -0.02340
H1026       H  0.44282853  0.16068791  0.28413185     0.09820
H1027       H  0.43826162  0.12244209  0.39450446     0.07840
Br1028     Br  0.48842720  0.11876688  0.37051819    -0.02770
C1029       C  0.78746683  0.51065553  0.99134705    -0.09400
C1030       C  0.80110451  0.50031510  0.01597616     0.06790
C1031       C  0.81420394  0.51052527  0.04159994    -0.03170
C1032       C  0.81471212  0.53069418  0.04106724    -0.07620
C1033       C  0.80269530  0.54115412  0.01476271     0.05910
C1034       C  0.78821807  0.53097526  0.99046368    -0.02650
Br1035     Br  0.77190624  0.54370196  0.95264748    -0.02340
H1036       H  0.77785421  0.50290332  0.97093289     0.09820
H1037       H  0.82560822  0.53820492  0.06035593     0.07840
Br1038     Br  0.83342456  0.49745445  0.07603529    -0.02770
C1039       C  0.94580853  0.41960472  0.87746254    -0.09400
C1040       C  0.92405357  0.40985011  0.87073243     0.06790
C1041       C  0.92164871  0.39927045  0.83887727    -0.03170
C1042       C  0.94113562  0.39798410  0.81548879    -0.07620
C1043       C  0.96271231  0.40770247  0.82231558     0.05910
C1044       C  0.96505747  0.41872835  0.85334827    -0.02650
Br1045     Br  0.99442410  0.43206076  0.86457492    -0.02340
H1046       H  0.94792637  0.42781105  0.90166173     0.09820
H1047       H  0.93912265  0.38995066  0.79104153     0.07840
Br1048     Br  0.89191865  0.38798581  0.82303263    -0.02770
C1049       C  0.73484355  0.00945545  0.97412100    -0.09400
C1050       C  0.72676317  0.00047246  0.00535540     0.06790
C1051       C  0.71921974  0.01196210  0.03409228    -0.03170
C1052       C  0.71854736  0.03207542  0.03070387    -0.07620
C1053       C  0.72519816  0.04105391  0.99877067     0.05910
C1054       C  0.73412539  0.02964829  0.97066663    -0.02650
Br1055     Br  0.74232660  0.04073435  0.92569697    -0.02340
H1056       H  0.74000205  0.00068799  0.95149986     0.09820
H1057       H  0.71157837  0.04068785  0.05249584     0.07840
Br1058     Br  0.70752002  0.00063839  0.07725266    -0.02770
C1059       C  0.59773680  0.15144224  0.12928555    -0.09400
C1060       C  0.61006446  0.13390276  0.12586684     0.06790
C1061       C  0.60322538  0.11799763  0.14662670    -0.03170
C1062       C  0.58443220  0.11991900  0.17107789    -0.07620
C1063       C  0.57207457  0.13755258  0.17521283     0.05910
C1064       C  0.57859654  0.15338526  0.15336312    -0.02650
Br1065     Br  0.56200519  0.17780003  0.15350653    -0.02340
H1066       H  0.60299001  0.16365151  0.11300697     0.09820
H1067       H  0.57983507  0.10757853  0.18740205     0.07840
Br1068     Br  0.61993288  0.09371072  0.14416781    -0.02770
C1069       C  0.74094232  0.23711346  0.02555418    -0.09400
C1070       C  0.75862757  0.24195678  0.00043889     0.06790
C1071       C  0.77217097  0.22710069  0.98422248    -0.03170
C1072       C  0.76785092  0.20777720  0.99329838    -0.07620
C1073       C  0.74943897  0.20275799  0.01745241     0.05910
C1074       C  0.73545559  0.21782242  0.03299875    -0.02650
Br1075     Br  0.70626325  0.21385211  0.05996917    -0.02340
H1076       H  0.73020058  0.24845835  0.03772429     0.09820
H1077       H  0.77874920  0.19660537  0.98094683     0.07840
Br1078     Br  0.79674750  0.23233786  0.94954632    -0.02770
C1079       C  0.75508170  0.30853194  0.99766517    -0.09400
C1080       C  0.77544569  0.29639930  0.99986948     0.06790
C1081       C  0.79862894  0.30474914  0.99661077    -0.03170
C1082       C  0.80110997  0.32459693  0.99237634    -0.07620
C1083       C  0.78097131  0.33678747  0.99014765     0.05910
C1084       C  0.75771313  0.32862514  0.99291512    -0.02650
Br1085     Br  0.72924435  0.34412492  0.98904786    -0.02340
H1086       H  0.73714663  0.30243014  0.00038593     0.09820
H1087       H  0.81917309  0.33051765  0.99002070     0.07840
Br1088     Br  0.82795937  0.28997532  0.99439699    -0.02770
C1089       C  0.24805057  0.50617491  0.00773025    -0.09400
C1090       C  0.22603861  0.49657934  0.00234121     0.06790
C1091       C  0.20428623  0.50698267  0.00611003    -0.03170
C1092       C  0.20487487  0.52672863  0.01287430    -0.07620
C1093       C  0.22677293  0.53664519  0.01743895     0.05910
C1094       C  0.24857561  0.52608621  0.01547828    -0.02650
Br1095     Br  0.27930121  0.53767075  0.02483419    -0.02340
H1096       H  0.26485116  0.49827740  0.00515242     0.09820
H1097       H  0.18784318  0.53435686  0.01454787     0.07840
Br1098     Br  0.17290713  0.49503997  0.00402625    -0.02770
C1099       C  0.09016137  0.39603928  0.86943947    -0.09400
C1100       C  0.11076699  0.40587710  0.85730069     0.06790
C1101       C  0.11089165  0.41483990  0.82404161    -0.03170
C1102       C  0.09026838  0.41426339  0.80359833    -0.07620
C1103       C  0.06956696  0.40459862  0.81564585     0.05910
C1104       C  0.06944578  0.39535212  0.84872675    -0.02650
Br1105     Br  0.04114833  0.38279438  0.86740480    -0.02340
H1106       H  0.09008727  0.38921030  0.89518339     0.09820
H1107       H  0.09053223  0.42107742  0.77782680     0.07840
Br1108     Br  0.13908699  0.42725503  0.80463829    -0.02770
C1109       C  0.23637189  0.29813228  0.98627112    -0.09400
C1110       C  0.25774860  0.29404387  0.00408077     0.06790
C1111       C  0.27250248  0.30957503  0.01519966    -0.03170
C1112       C  0.26600378  0.32863630  0.00732796    -0.07620
C1113       C  0.24448327  0.33264574  0.98971598     0.05910
C1114       C  0.22908742  0.31711174  0.98052146    -0.02650
Br1115     Br  0.19653829  0.32041094  0.96441888    -0.02340
H1116       H  0.22467094  0.28648847  0.97796558     0.09820
H1117       H  0.27789265  0.34036231  0.01484023     0.07840
Br1118     Br  0.30169155  0.30610180  0.04096798    -0.02770
C1119       C  0.29500625  0.02246872  0.03113655    -0.09400
C1120       C  0.29557319  0.03611918  0.00369181     0.06790
C1121       C  0.29431861  0.02964193  0.96842498    -0.03170
C1122       C  0.29390161  0.00977220  0.96122062    -0.07620
C1123       C  0.29465942  0.99612676  0.98863058     0.05910
C1124       C  0.29460250  0.00262217  0.02394418    -0.02650
Br1125     Br  0.29752257  0.98527236  0.06317729    -0.02340
H1126       H  0.29630559  0.02726663  0.05834041     0.09820
H1127       H  0.29440245  0.00492350  0.93396293     0.07840
Br1128     Br  0.29654584  0.04698210  0.92901215    -0.02770
C1129       C  0.44550136  0.12027877  0.12871513    -0.09400
C1130       C  0.42478767  0.13141163  0.13533405     0.06790
C1131       C  0.42518270  0.14576121  0.16202860    -0.03170
C1132       C  0.44614395  0.14872412  0.18129217    -0.07620
C1133       C  0.46653897  0.13722929  0.17529974     0.05910
C1134       C  0.46630492  0.12303332  0.14855653    -0.02650
Br1135     Br  0.49399615  0.10733083  0.13768931    -0.02340
H1136       H  0.44549805  0.10938156  0.10808371     0.09820
H1137       H  0.44600047  0.15923385  0.20261336     0.07840
Br1138     Br  0.39720048  0.16018203  0.17692253    -0.02770
C1139       C  0.25698807  0.22759282  0.00318120    -0.09400
C1140       C  0.27682903  0.24031907  0.00076235     0.06790
C1141       C  0.30029119  0.23279411  0.00402888    -0.03170
C1142       C  0.30359703  0.21304390  0.00834745    -0.07620
C1143       C  0.28392853  0.20026715  0.01095169     0.05910
C1144       C  0.26036911  0.20768447  0.00837390    -0.02650
Br1145     Br  0.23238079  0.19158153  0.01361569    -0.02340
H1146       H  0.23883382  0.23307179  0.00042475     0.09820
H1147       H  0.32188793  0.20769110  0.01050237     0.07840
Br1148     Br  0.32874787  0.24864631  0.00544812    -0.02770
C1149       C  0.79143786  0.27824979  0.39045877    -0.09400
C1150       C  0.81250497  0.26706223  0.39234854     0.06790
C1151       C  0.81802689  0.25808961  0.42478279    -0.03170
C1152       C  0.80307804  0.26106052  0.45459460    -0.07620
C1153       C  0.78222629  0.27261400  0.45272467     0.05910
C1154       C  0.77645433  0.28106726  0.41998849    -0.02650
Br1155     Br  0.74812106  0.29641048  0.41335837    -0.02340
H1156       H  0.78670046  0.28517670  0.36585535     0.09820
H1157       H  0.80792384  0.25452464  0.47950446     0.07840
Br1158     Br  0.84476899  0.24075335  0.42957830    -0.02770
C1159       C  0.79195341  0.27613693  0.10604756    -0.09400
C1160       C  0.81325772  0.26511685  0.10499749     0.06790
C1161       C  0.81908824  0.25506863  0.07347736    -0.03170
C1162       C  0.80467639  0.25726261  0.04339168    -0.07620
C1163       C  0.78460550  0.26972507  0.04361803     0.05910
C1164       C  0.77772564  0.27844775  0.07596551    -0.02650
Br1165     Br  0.74863608  0.29326591  0.08098511    -0.02340
H1166       H  0.78659426  0.28346001  0.13022263     0.09820
H1167       H  0.81006689  0.25010460  0.01913213     0.07840
Br1168     Br  0.84604526  0.23777271  0.07004577    -0.02770
C1169       C  0.23629931  0.27537347  0.39403456    -0.09400
C1170       C  0.21642771  0.26278830  0.39511150     0.06790
C1171       C  0.21187892  0.25225809  0.42636793    -0.03170
C1172       C  0.22660677  0.25495049  0.45603430    -0.07620
C1173       C  0.24574286  0.26841743  0.45563207     0.05910
C1174       C  0.25069771  0.27839217  0.42372404    -0.02650
Br1175     Br  0.27703333  0.29626240  0.41832511    -0.02340
H1176       H  0.24032887  0.28335573  0.37007762     0.09820
H1177       H  0.22222673  0.24725954  0.48014217     0.07840
Br1178     Br  0.18617910  0.23373350  0.42972914    -0.02770
C1179       C  0.22310526  0.26390779  0.04309147    -0.09400
C1180       C  0.24809741  0.26685824  0.04619345     0.06790
C1181       C  0.25823353  0.26558524  0.08004302    -0.03170
C1182       C  0.24317961  0.26418417  0.11003799    -0.07620
C1183       C  0.21782866  0.26292779  0.10721877     0.05910
C1184       C  0.20810301  0.26149584  0.07283915    -0.02650
Br1185     Br  0.17514326  0.25476557  0.06357070    -0.02340
H1186       H  0.21508084  0.26334769  0.01720820     0.09820
H1187       H  0.25156320  0.26432167  0.13569630     0.07840
Br1188     Br  0.29236186  0.26458484  0.08703138    -0.02770
C1189       C  0.02865414  0.26041211  0.27241958    -0.09400
C1190       C  0.04119555  0.27339194  0.25030819     0.06790
C1191       C  0.02755849  0.28540773  0.22782346    -0.03170
C1192       C  0.00220699  0.28398644  0.22743156    -0.07620
C1193       C  0.98971773  0.27099686  0.24957892     0.05910
C1194       C  0.00334261  0.25905064  0.27212842    -0.02650
Br1195     Br  0.98874355  0.23943493  0.30114918    -0.02340
H1196       H  0.03864749  0.25086310  0.28953215     0.09820
H1197       H  0.99213339  0.29346884  0.21028600     0.07840
Br1198     Br  0.04214539  0.30517111  0.19914107    -0.02770
C1199       C  0.70649667  0.26253388  0.57541942    -0.09400
C1200       C  0.71733039  0.27112615  0.60491814     0.06790
C1201       C  0.74090491  0.27886993  0.60069372    -0.03170
C1202       C  0.75337865  0.27690515  0.56825366    -0.07620
C1203       C  0.74280942  0.26753208  0.53922229     0.05910
C1204       C  0.71877242  0.26076423  0.54305415    -0.02650
Br1205     Br  0.70078822  0.24988125  0.50471045    -0.02340
H1206       H  0.68834595  0.25679662  0.57755809     0.09820
H1207       H  0.77168695  0.28230383  0.56601196     0.07840
Br1208     Br  0.75677380  0.29323320  0.63715474    -0.02770
C1209       C  0.73962345  0.27566949  0.89533579    -0.09400
C1210       C  0.71514834  0.26994775  0.89668655     0.06790
C1211       C  0.70570845  0.26371789  0.92967562    -0.03170
C1212       C  0.72049507  0.26326555  0.95948061    -0.07620
C1213       C  0.74525319  0.26785043  0.95771358     0.05910
C1214       C  0.75466141  0.27442215  0.92501107    -0.02650
Br1215     Br  0.78809020  0.28052276  0.91785767    -0.02340
H1216       H  0.74746362  0.28065256  0.87066363     0.09820
H1217       H  0.71262156  0.25826256  0.98405305     0.07840
Br1218     Br  0.67395632  0.25303243  0.93614033    -0.02770
C1219       C  0.31032861  0.26034035  0.53975270    -0.09400
C1220       C  0.28560926  0.26490860  0.54095702     0.06790
C1221       C  0.27555360  0.27079674  0.57364988    -0.03170
C1222       C  0.29026530  0.27249152  0.60360571    -0.07620
C1223       C  0.31498827  0.26747759  0.60254134     0.05910
C1224       C  0.32479284  0.26106452  0.56984379    -0.02650
Br1225     Br  0.35657097  0.25034061  0.56425370    -0.02340
H1226       H  0.31836888  0.25507826  0.51548504     0.09820
H1227       H  0.28198394  0.27715913  0.62820964     0.07840
Br1228     Br  0.24153075  0.27453030  0.58013714    -0.02770
C1229       C  0.28931881  0.25972668  0.89332043    -0.09400
C1230       C  0.31078312  0.27059267  0.89222540     0.06790
C1231       C  0.31717298  0.28126075  0.92262374    -0.03170
C1232       C  0.30350896  0.27944648  0.95393226    -0.07620
C1233       C  0.28339981  0.26706271  0.95598468     0.05910
C1234       C  0.27565747  0.25800835  0.92457235    -0.02650
Br1235     Br  0.24629969  0.24334160  0.92245806    -0.02340
H1236       H  0.28346571  0.25196897  0.87004445     0.09820
H1237       H  0.30969527  0.28673894  0.97727822     0.07840
Br1238     Br  0.34391645  0.29891441  0.92310485    -0.02770
C1239       C  0.52837390  0.25391385  0.77192034    -0.09400
C1240       C  0.54070728  0.26645725  0.74869495     0.06790
C1241       C  0.52683532  0.27802203  0.72579096    -0.03170
C1242       C  0.50148618  0.27681120  0.72637317    -0.07620
C1243       C  0.48911719  0.26437164  0.74971689     0.05910
C1244       C  0.50298445  0.25264485  0.77239630    -0.02650
Br1245     Br  0.48858742  0.23347884  0.80260462    -0.02340
H1246       H  0.53858820  0.24469927  0.78936667     0.09820
H1247       H  0.49132938  0.28609233  0.70898128     0.07840
Br1248     Br  0.54114085  0.29700194  0.69511092    -0.02770
loop_ 
_geom_bond_atom_site_label_1 
_geom_bond_atom_site_label_2 
_geom_bond_distance 
_geom_bond_site_symmetry_2 
_ccdc_geom_bond_type 
N1            N2   1.321       .  A
N1            C5   1.349       .  A
N1           Cu9   2.106       .  S
N2            C3   1.346       .  A
N2           Cu8   2.074       .  S
C3            C4   1.389       .  A
C3            H6   1.081       .  S
C4            C5   1.397       .  A
C4         C1223   1.503       .  S
C5            H7   1.078       .  S
Cu8          N11   2.074       .  S
Cu9          N19   2.107       .  S
Cu10         N12   2.104       .  S
Cu10         N18   2.105       .  S
N11          N12   1.322       .  A
N11          C15   1.345       .  A
N12          C13   1.350       .  A
C13          C14   1.393       .  A
C13          H16   1.081       .  S
C14          C15   1.385       .  A
C14        C1230   1.493       .  S
C15          H17   1.082       .  S
N18          N19   1.324       .  A
N18          C22   1.351       .  A
N19          C20   1.351       .  A
C20          C21   1.391       .  A
C20          H23   1.081       .  S
C21          C22   1.391       .  A
C21        C1243   1.501       .  S
C22          H24   1.081       .  S
N25          N26   1.322       .  A
N25          C29   1.348       .  A
N25         Cu33   2.101       .  S
N26          C27   1.348       .  A
N26         Cu32   2.083       .  S
C27          C28   1.389       .  A
C27          H30   1.080       .  S
C28          C29   1.393       .  A
C28        C1200   1.498       .  S
C29          H31   1.081       .  S
Cu32         N35   2.083       .  S
Cu33         N43   2.101       .  S
Cu34         N36   2.108       .  S
Cu34         N42   2.108       .  S
N35          N36   1.322       .  A
N35          C39   1.347       .  A
N36          C37   1.350       .  A
C37          C38   1.397       .  A
C37          H40   1.078       .  S
C38          C39   1.391       .  A
C38        C1210   1.505       .  S
C39          H41   1.081       .  S
N42          N43   1.324       .  A
N42          C46   1.352       .  A
N43          C44   1.350       .  A
C44          C45   1.390       .  A
C44          H47   1.081       .  S
C45          C46   1.391       .  A
C45        C1240   1.500       .  S
C46          H48   1.081       .  S
N49          N50   1.320       .  A
N49          C53   1.348       .  A
N49         Cu57   2.099       .  S
N50          C51   1.345       .  A
N50         Cu56   2.072       .  S
C51          C52   1.390       .  A
C51          H54   1.081       .  S
C52          C53   1.397       .  A
C52        C1183   1.503       .  S
C53          H55   1.078       .  S
Cu56         N59   2.073       .  S
Cu57         N67   2.100       .  S
Cu58         N60   2.108       .  S
Cu58         N66   2.109       .  S
N59          N60   1.323       .  A
N59          C63   1.344       .  A
N60          C61   1.352       .  A
C61          C62   1.392       .  A
C61          H64   1.081       .  S
C62          C63   1.383       .  A
C62        C1170   1.489       .  S
C63          H65   1.081       .  S
N66          N67   1.325       .  A
N66          C70   1.350       .  A
N67          C68   1.350       .  A
C68          C69   1.390       .  A
C68          H71   1.081       .  S
C69          C70   1.391       .  A
C69        C1190   1.499       .  S
C70          H72   1.081       .  S
N73          N74   1.322       .  A
N73          C77   1.353       .  A
N73         Cu81   2.112       .  S
N74          C75   1.345       .  A
N74         Cu80   2.071       .  S
C75          C76   1.384       .  A
C75          H78   1.082       .  S
C76          C77   1.395       .  A
C76        C1160   1.493       .  S
C77          H79   1.081       .  S
Cu80         N83   2.071       .  S
Cu81         N91   2.113       .  S
Cu82         N84   2.095       .  S
Cu82         N90   2.097       .  S
N83          N84   1.321       .  A
N83          C87   1.343       .  A
N84          C85   1.351       .  A
C85          C86   1.392       .  A
C85          H88   1.081       .  S
C86          C87   1.385       .  A
C86        C1150   1.490       .  S
C87          H89   1.082       .  S
N90          N91   1.326       .  A
N90          C94   1.348       .  A
N91          C92   1.352       .  A
C92          C93   1.391       .  A
C92          H95   1.081       .  S
C93          C94   1.387       .  A
C93        C1193   1.496       .  S
C94          H96   1.081       .  S
N97          N98   1.318       .  A
N97         C101   1.355       .  A
N97        Cu105   2.104       .  S
N98          C99   1.330       .  A
N98        Cu104   2.016       .  S
C99         C100   1.373       .  A
C99         H102   1.082       .  S
C100        C101   1.397       .  A
C100       C1143   1.478       .  S
C101        H103   1.081   1_554  S
Cu104       N107   2.017       .  S
Cu105       N115   2.109       .  S
Cu106       N108   2.061       .  S
Cu106       N114   2.066       .  S
N107        N108   1.314       .  A
N107        C111   1.335       .  A
N108        C109   1.345       .  A
C109        C110   1.389       .  A
C109        H112   1.082       .  S
C110        C111   1.377       .  A
C110       C1130   1.469       .  S
C111        H113   1.081       .  S
N114        N115   1.328       .  A
N114        C118   1.339       .  A
N115        C116   1.351       .  A
C116        C117   1.388       .  A
C116        H119   1.081   1_554  S
C117        C118   1.375       .  A
C117       C1120   1.477       .  S
C118        H120   1.082       .  S
C121        C122   1.368   1_554  D
C121       C1110   1.487       .  S
C121       C1180   1.503       .  S
C122       C1140   1.490   1_556  S
C122       C1233   1.507       .  S
N123        N124   1.323       .  A
N123        C127   1.353       .  A
N123       Cu131   2.110       .  S
N124        C125   1.333       .  A
N124       Cu130   2.033       .  S
C125        C126   1.372       .  A
C125        H128   1.080       .  S
C126        C127   1.394       .  A
C126       C1113   1.478       .  S
C127        H129   1.081   1_556  S
Cu130       N133   2.035       .  S
Cu131       N141   2.109       .  S
Cu132       N134   2.032       .  S
Cu132       N140   2.033       .  S
N133        N134   1.314       .  A
N133        C137   1.341       .  A
N134        C135   1.338       .  A
C135        C136   1.379       .  A
C135        H138   1.082       .  S
C136        C137   1.379       .  A
C136       C1100   1.454       .  S
C137        H139   1.082       .  S
N140        N141   1.323       .  A
N140        C144   1.333       .  A
N141        C142   1.354   1_556  A
C142        C143   1.393   1_554  A
C142        H145   1.081       .  S
C143        C144   1.372       .  A
C143       C1090   1.474   1_556  S
C144        H146   1.082       .  S
C147        C148   1.372   1_556  D
C147       C1070   1.490   1_556  S
C147       C1213   1.511       .  S
C148       C1080   1.494   1_554  S
C148       C1163   1.509       .  S
N149        N150   1.320       .  A
N149        C153   1.350       .  A
N149       Cu157   2.095   1_554  S
N150        C151   1.338       .  A
N150       Cu156   2.047       .  S
C151        C152   1.381       .  A
C151        H154   1.078       .  S
C152        C153   1.395       .  A
C152       C1073   1.489       .  S
C153        H155   1.081   1_554  S
Cu156       N159   2.054       .  S
Cu157       N167   2.096       .  S
Cu158       N160   2.050       .  S
Cu158       N166   2.050       .  S
N159        N160   1.320       .  A
N159        C163   1.341       .  A
N160        C161   1.342       .  A
C161        C162   1.379       .  A
C161        H164   1.082       .  S
C162        C163   1.377       .  A
C162       C1060   1.458       .  S
C163        H165   1.081       .  S
N166        N167   1.322   1_554  A
N166        C170   1.339       .  A
N167        C168   1.352       .  A
C168        C169   1.389       .  A
C168        H171   1.081       .  S
C169        C170   1.377   1_556  A
C169       C1053   1.476       .  S
C170        H172   1.082       .  S
N173        N174   1.320       .  A
N173        C177   1.357       .  A
N173       Cu181   2.113       .  S
N174        C175   1.332       .  A
N174       Cu180   2.030       .  S
C175        C176   1.375       .  A
C175        H178   1.082       .  S
C176        C177   1.398       .  A
C176       C1083   1.482       .  S
C177        H179   1.081   1_556  S
Cu180       N183   2.031       .  S
Cu181       N191   2.116   1_556  S
Cu182       N184   2.052       .  S
Cu182       N190   2.055       .  S
N183        N184   1.314       .  A
N183        C187   1.336       .  A
N184        C185   1.344       .  A
C185        C186   1.388       .  A
C185        H188   1.082       .  S
C186        C187   1.381       .  A
C186       C1040   1.472       .  S
C187        H189   1.080       .  S
N190        N191   1.327   1_556  A
N190        C194   1.337       .  A
N191        C192   1.354       .  A
C192        C193   1.389       .  A
C192        H195   1.081       .  S
C193        C194   1.372   1_554  A
C193       C1030   1.472       .  S
C194        H196   1.082       .  S
O197       Cu205   1.988       .  S
O197        C207   1.275       .  A
O198       Cu205   1.992       .  S
O198        C208   1.275       .  A
O199       Cu205   2.003       .  S
O199        C209   1.278       .  A
O200       Cu205   2.008       .  S
O200        C210   1.277       .  A
O201       Cu206   1.972       .  S
O201        C210   1.274       .  A
O202       Cu206   1.975       .  S
O202        C209   1.273       .  A
O203       Cu206   1.988       .  S
O203        C208   1.277       .  A
O204       Cu206   1.992       .  S
O204        C207   1.276       .  A
Cu205      Cu206   2.376       .  S
C207       C1020   1.458       .  S
C208       C1063   1.476       .  S
C209       C1133   1.460       .  S
C210       C1010   1.467       .  S
N211        N212   1.321       .  A
N211        C215   1.352       .  A
N211       Cu219   2.106       .  S
N212        C213   1.333       .  A
N212       Cu218   2.043       .  S
C213        C214   1.380       .  A
C213        H216   1.080       .  S
C214        C215   1.398       .  A
C214       C1000   1.492       .  S
C215        H217   1.080       .  S
Cu218       N221   2.048       .  S
Cu219       N229   2.106       .  S
Cu220       N222   2.032       .  S
Cu220       N228   2.034       .  S
N221        N222   1.313       .  A
N221        C225   1.341       .  A
N222        C223   1.338       .  A
C223        C224   1.385       .  A
C223        H226   1.082       .  S
C224        C225   1.387       .  A
C224       C1023   1.476       .  S
C225        H227   1.080       .  S
N228        N229   1.321       .  A
N228        C232   1.331       .  A
N229        C230   1.354       .  A
C230        C231   1.397       .  A
C230        H233   1.080       .  S
C231        C232   1.377       .  A
C231        C990   1.485       .  S
C232        H234   1.081       .  S
N235        N236   1.321       .  A
N235        C239   1.354       .  A
N235       Cu243   2.102       .  S
N236        C237   1.334       .  A
N236       Cu242   2.036       .  S
C237        C238   1.375       .  A
C237        H240   1.082       .  S
C238        C239   1.393       .  A
C238        C980   1.476       .  S
C239        H241   1.081       .  S
Cu242       N245   2.039       .  S
Cu243       N253   2.104       .  S
Cu244       N246   2.049       .  S
Cu244       N252   2.053       .  S
N245        N246   1.314       .  A
N245        C249   1.338       .  A
N246        C247   1.342       .  A
C247        C248   1.388       .  A
C247        H250   1.081       .  S
C248        C249   1.384       .  A
C248        C970   1.474       .  S
C249        H251   1.082       .  S
N252        N253   1.325       .  A
N252        C256   1.338       .  A
N253        C254   1.352       .  A
C254        C255   1.388       .  A
C254        H257   1.081       .  S
C255        C256   1.373       .  A
C255        C960   1.470       .  S
C256        H258   1.082       .  S
C259        C260   1.374       .  D
C259       C1003   1.484       .  S
C259       C1220   1.506       .  S
C260        C983   1.492       .  S
C260       C1173   1.511       .  S
C261        C262   1.373       .  D
C261        C943   1.494       .  S
C261       C1203   1.508       .  S
C262        C950   1.491       .  S
C262       C1153   1.505       .  S
N263        N264   1.323       .  A
N263        C267   1.353       .  A
N263       Cu271   2.100       .  S
N264        C265   1.335       .  A
N264       Cu270   2.040       .  S
C265        C266   1.373       .  A
C265        H268   1.082       .  S
C266        C267   1.390       .  A
C266        C940   1.471       .  S
C267        H269   1.081       .  S
Cu270       N273   2.038       .  S
Cu271       N281   2.101       .  S
Cu272       N274   2.049       .  S
Cu272       N280   2.050       .  S
N273        N274   1.316       .  A
N273        C277   1.342       .  A
N274        C275   1.339       .  A
C275        C276   1.383       .  A
C275        H278   1.081       .  S
C276        C277   1.381       .  A
C276       C1013   1.465       .  S
C277        H279   1.082       .  S
N280        N281   1.324       .  A
N280        C284   1.337       .  A
N281        C282   1.352       .  A
C282        C283   1.388       .  A
C282        H285   1.081       .  S
C283        C284   1.372       .  A
C283        C933   1.468       .  S
C284        H286   1.082       .  S
N287        N288   1.321       .  A
N287        C291   1.351       .  A
N287       Cu295   2.098       .  S
N288        C289   1.336       .  A
N288       Cu294   2.035       .  S
C289        C290   1.374       .  A
C289        H292   1.082       .  S
C290        C291   1.391       .  A
C290        C953   1.473       .  S
C291        H293   1.081       .  S
Cu294       N297   2.038       .  S
Cu295       N305   2.100       .  S
Cu296       N298   2.058       .  S
Cu296       N304   2.060       .  S
N297        N298   1.317       .  A
N297        C301   1.337       .  A
N298        C299   1.343       .  A
C299        C300   1.387       .  A
C299        H302   1.082       .  S
C300        C301   1.380       .  A
C300        C920   1.472       .  S
C301        H303   1.080       .  S
N304        N305   1.325       .  A
N304        C308   1.340       .  A
N305        C306   1.351       .  A
C306        C307   1.386       .  A
C306        H309   1.081       .  S
C307        C308   1.375       .  A
C307        C910   1.470       .  S
C308        H310   1.082       .  S
O311       Cu319   1.984       .  S
O311        C321   1.275       .  A
O312       Cu319   1.994   1_655  S
O312        C322   1.276       .  A
O313       Cu319   1.980       .  S
O313        C323   1.275       .  A
O314       Cu319   1.984   1_655  S
O314        C324   1.274       .  A
O315       Cu320   1.993   1_655  S
O315        C324   1.276       .  A
O316       Cu320   1.992       .  S
O316        C323   1.275       .  A
O317       Cu320   1.985   1_655  S
O317        C322   1.275       .  A
O318       Cu320   1.996       .  S
O318        C321   1.276       .  A
Cu319      Cu320   2.383       .  S
C321        C973   1.458       .  S
C322       C1043   1.457       .  S
C323       C1103   1.454       .  S
C324        C923   1.453       .  S
N325        N326   1.322       .  A
N325        C329   1.349       .  A
N325       Cu333   2.103       .  S
N326        C327   1.347       .  A
N326       Cu332   2.084       .  S
C327        C328   1.391       .  A
C327        H330   1.081       .  S
C328        C329   1.396       .  A
C328        C880   1.504       .  S
C329        H331   1.078       .  S
Cu332       N335   2.084       .  S
Cu333       N343   2.103       .  S
Cu334       N336   2.096       .  S
Cu334       N342   2.096       .  S
N335        N336   1.320       .  A
N335        C339   1.348       .  A
N336        C337   1.346       .  A
C337        C338   1.396       .  A
C337        H340   1.076       .  S
C338        C339   1.393       .  A
C338        C893   1.506       .  S
C339        H341   1.081       .  S
N342        N343   1.323       .  A
N342        C346   1.350       .  A
N343        C344   1.350       .  A
C344        C345   1.393       .  A
C344        H347   1.080       .  S
C345        C346   1.391       .  A
C345        C900   1.501       .  S
C346        H348   1.082       .  S
N349        N350   1.318       .  A
N349        C353   1.345       .  A
N349       Cu357   2.094       .  S
N350        C351   1.347       .  A
N350       Cu356   2.081       .  S
C351        C352   1.397       .  A
C351        H354   1.080       .  S
C352        C353   1.398       .  A
C352        C870   1.512       .  S
C353        H355   1.074       .  S
Cu356       N359   2.082       .  S
Cu357       N367   2.094       .  S
Cu358       N360   2.103       .  S
Cu358       N366   2.103       .  S
N359        N360   1.324       .  A
N359        C363   1.345       .  A
N360        C361   1.351       .  A
C361        C362   1.389       .  A
C361        H364   1.081       .  S
C362        C363   1.385       .  A
C362        C863   1.489       .  S
C363        H365   1.081       .  S
N366        N367   1.323       .  A
N366        C370   1.351       .  A
N367        C368   1.349       .  A
C368        C369   1.388       .  A
C368        H371   1.082       .  S
C369        C370   1.391       .  A
C369        C903   1.496       .  S
C370        H372   1.081       .  S
N373        N374   1.322       .  A
N373        C377   1.353       .  A
N373       Cu381   2.107       .  S
N374        C375   1.343       .  A
N374       Cu380   2.071       .  S
C375        C376   1.384       .  A
C375        H378   1.082       .  S
C376        C377   1.394       .  A
C376        C840   1.492       .  S
C377        H379   1.081       .  S
Cu380       N383   2.071       .  S
Cu381       N391   2.109       .  S
Cu382       N384   2.100       .  S
Cu382       N390   2.101       .  S
N383        N384   1.321       .  A
N383        C387   1.344       .  A
N384        C385   1.351       .  A
C385        C386   1.393       .  A
C385        H388   1.081       .  S
C386        C387   1.385       .  A
C386        C830   1.491       .  S
C387        H389   1.082       .  S
N390        N391   1.325       .  A
N390        C394   1.349       .  A
N391        C392   1.351       .  A
C392        C393   1.391       .  A
C392        H395   1.082       .  S
C393        C394   1.390       .  A
C393        C853   1.500       .  S
C394        H396   1.080       .  S
N397        N398   1.320       .  A
N397        C401   1.350       .  A
N397       Cu405   2.105       .  S
N398        C399   1.346       .  A
N398       Cu404   2.079       .  S
C399        C400   1.391       .  A
C399        H402   1.081       .  S
C400        C401   1.398       .  A
C400        C810   1.506       .  S
C401        H403   1.078       .  S
Cu404       N407   2.079       .  S
Cu405       N415   2.105       .  S
Cu406       N408   2.103       .  S
Cu406       N414   2.103       .  S
N407        N408   1.322       .  A
N407        C411   1.345       .  A
N408        C409   1.352       .  A
C409        C410   1.394       .  A
C409        H412   1.081       .  S
C410        C411   1.387       .  A
C410        C820   1.496       .  S
C411        H413   1.081       .  S
N414        N415   1.325       .  A
N414        C418   1.350       .  A
N415        C416   1.350       .  A
C416        C417   1.391       .  A
C416        H419   1.081       .  S
C417        C418   1.390       .  A
C417        C850   1.500       .  S
C418        H420   1.082       .  S
N421        N422   1.319       .  A
N421        C425   1.352       .  A
N421       Cu429   2.105       .  S
N422        C423   1.331       .  A
N422       Cu428   2.032       .  S
C423        C424   1.380       .  A
C423        H426   1.080       .  S
C424        C425   1.400       .  A
C424        C800   1.492       .  S
C425        H427   1.079       .  S
Cu428       N431   2.037       .  S
Cu429       N439   2.107       .  S
Cu430       N432   2.037       .  S
Cu430       N438   2.041       .  S
N431        N432   1.312       .  A
N431        C435   1.338       .  A
N432        C433   1.340       .  A
C433        C434   1.387       .  A
C433        H436   1.081       .  S
C434        C435   1.386       .  A
C434        C790   1.472       .  S
C435        H437   1.082       .  S
N438        N439   1.324       .  A
N438        C442   1.333       .  A
N439        C440   1.354       .  A
C440        C441   1.391       .  A
C440        H443   1.081       .  S
C441        C442   1.372       .  A
C441        C993   1.472       .  S
C442        H444   1.082       .  S
C445        C446   1.371       .  D
C445        C803   1.482       .  S
C445        C890   1.498       .  S
C446        C780   1.490       .  S
C446        C843   1.509       .  S
N447        N448   1.320       .  A
N447        C451   1.352       .  A
N447       Cu455   2.097       .  S
N448        C449   1.333       .  A
N448       Cu454   2.022       .  S
C449        C450   1.372       .  A
C449        H452   1.082       .  S
C450        C451   1.392       .  A
C450        C783   1.472       .  S
C451        H453   1.082       .  S
Cu454       N457   2.025       .  S
Cu455       N465   2.101       .  S
Cu456       N458   2.061       .  S
Cu456       N464   2.066       .  S
N457        N458   1.314       .  A
N457        C461   1.336       .  A
N458        C459   1.345       .  A
C459        C460   1.390       .  A
C459        H462   1.081       .  S
C460        C461   1.380       .  A
C460        C770   1.475       .  S
C461        H463   1.080       .  S
N464        N465   1.327       .  A
N464        C468   1.339       .  A
N465        C466   1.350       .  A
C466        C467   1.386       .  A
C466        H469   1.081       .  S
C467        C468   1.376       .  A
C467        C963   1.474       .  S
C468        H470   1.081       .  S
N471        N472   1.323       .  A
N471        C475   1.354       .  A
N471       Cu479   2.107       .  S
N472        C473   1.334       .  A
N472       Cu478   2.044       .  S
C473        C474   1.375       .  A
C473        H476   1.082       .  S
C474        C475   1.392       .  A
C474        C760   1.474       .  S
C475        H477   1.081   1_554  S
Cu478       N481   2.048       .  S
Cu479       N489   2.106       .  S
Cu480       N482   2.038       .  S
Cu480       N488   2.040       .  S
N481        N482   1.313       .  A
N481        C485   1.341       .  A
N482        C483   1.339       .  A
C483        C484   1.386       .  A
C483        H486   1.080       .  S
C484        C485   1.387       .  A
C484        C750   1.475       .  S
C485        H487   1.081       .  S
N488        N489   1.322       .  A
N488        C492   1.333       .  A
N489        C490   1.353       .  A
C490        C491   1.395       .  A
C490        H493   1.080   1_554  S
C491        C492   1.377       .  A
C491       C1093   1.484       .  S
C492        H494   1.082       .  S
N495        N496   1.323       .  A
N495        C499   1.351       .  A
N495       Cu503   2.094       .  S
N496        C497   1.337       .  A
N496       Cu502   2.047       .  S
C497        C498   1.376       .  A
C497        H500   1.082       .  S
C498        C499   1.389       .  A
C498        C740   1.474       .  S
C499        H501   1.081       .  S
Cu502       N505   2.046       .  S
Cu503       N513   2.094       .  S
Cu504       N506   2.053       .  S
Cu504       N512   2.054       .  S
N505        N506   1.317       .  A
N505        C509   1.343       .  A
N506        C507   1.339       .  A
C507        C508   1.384       .  A
C507        H510   1.082       .  S
C508        C509   1.383       .  A
C508        C730   1.471       .  S
C509        H511   1.082       .  S
N512        N513   1.323       .  A
N512        C516   1.339       .  A
N513        C514   1.350       .  A
C514        C515   1.389       .  A
C514        H517   1.081   1_556  S
C515        C516   1.376       .  A
C515       C1123   1.475       .  S
C516        H518   1.082       .  S
C519        C520   1.374   1_556  D
C519        C763   1.494       .  S
C519        C833   1.505       .  S
C520        C743   1.492   1_554  S
C520        C883   1.510       .  S
C521        C522   1.374   1_554  D
C521        C720   1.492   1_554  S
C521        C873   1.505       .  S
C522        C710   1.495       .  S
C522        C823   1.508       .  S
N523        N524   1.320       .  A
N523        C527   1.352       .  A
N523       Cu531   2.102       .  S
N524        C525   1.337       .  A
N524       Cu530   2.041       .  S
C525        C526   1.378       .  A
C525        H528   1.079       .  S
C526        C527   1.396       .  A
C526        C723   1.487       .  S
C527        H529   1.082   1_556  S
Cu530       N533   2.047       .  S
Cu531       N541   2.103   1_556  S
Cu532       N534   2.052       .  S
Cu532       N540   2.052       .  S
N533        N534   1.317       .  A
N533        C537   1.338       .  A
N534        C535   1.342       .  A
C535        C536   1.386       .  A
C535        H538   1.082       .  S
C536        C537   1.383       .  A
C536        C703   1.474       .  S
C537        H539   1.080       .  S
N540        N541   1.324   1_556  A
N540        C544   1.339       .  A
N541        C542   1.353       .  A
C542        C543   1.388       .  A
C542        H545   1.081       .  S
C543        C544   1.374   1_554  A
C543       C1050   1.471   1_565  S
C544        H546   1.082       .  S
N547        N548   1.321       .  A
N547        C551   1.352       .  A
N547       Cu555   2.101       .  S
N548        C549   1.337       .  A
N548       Cu554   2.034       .  S
C549        C550   1.374       .  A
C549        H552   1.082       .  S
C550        C551   1.392       .  A
C550        C713   1.475       .  S
C551        H553   1.081   1_554  S
Cu554       N557   2.040       .  S
Cu555       N565   2.103       .  S
Cu556       N558   2.059       .  S
Cu556       N564   2.060       .  S
N557        N558   1.316       .  A
N557        C561   1.337       .  A
N558        C559   1.344       .  A
C559        C560   1.389       .  A
C559        H562   1.080       .  S
C560        C561   1.382       .  A
C560        C693   1.476       .  S
C561        H563   1.081       .  S
N564        N565   1.324       .  A
N564        C568   1.338       .  A
N565        C566   1.352       .  A
C566        C567   1.391       .  A
C566        H569   1.081       .  S
C567        C568   1.380       .  A
C567       C1033   1.485       .  S
C568        H570   1.082       .  S
O571       Cu579   1.998       .  S
O571        C581   1.276       .  A
O572       Cu579   1.994   1_655  S
O572        C582   1.277       .  A
O573       Cu579   1.996       .  S
O573        C583   1.277       .  A
O574       Cu579   1.997   1_655  S
O574        C584   1.276       .  A
O575       Cu580   1.983   1_655  S
O575        C584   1.274       .  A
O576       Cu580   1.989       .  S
O576        C583   1.275       .  A
O577       Cu580   1.987   1_655  S
O577        C582   1.275       .  A
O578       Cu580   1.988       .  S
O578        C581   1.276       .  A
Cu579      Cu580   2.379       .  S
C581        C753   1.462       .  S
C582        C680   1.469       .  S
C583        C773   1.461       .  S
C584        C690   1.454       .  S
N585        N586   1.321       .  A
N585        C589   1.356       .  A
N585       Cu593   2.111       .  S
N586        C587   1.331       .  A
N586       Cu592   2.028       .  S
C587        C588   1.373       .  A
C587        H590   1.082       .  S
C588        C589   1.398       .  A
C588        C670   1.483       .  S
C589        H591   1.081       .  S
Cu592       N595   2.028       .  S
Cu593       N603   2.113       .  S
Cu594       N596   2.052       .  S
Cu594       N602   2.055       .  S
N595        N596   1.314       .  A
N595        C599   1.338       .  A
N596        C597   1.343       .  A
C597        C598   1.386       .  A
C597        H600   1.082       .  S
C598        C599   1.380       .  A
C598        C683   1.466       .  S
C599        H601   1.082       .  S
N602        N603   1.326       .  A
N602        C606   1.337       .  A
N603        C604   1.354       .  A
C604        C605   1.389       .  A
C604        H607   1.081       .  S
C605        C606   1.373       .  A
C605        C913   1.475       .  S
C606        H608   1.082       .  S
N609        N610   1.321       .  A
N609        C613   1.350       .  A
N609       Cu617   2.088       .  S
N610        C611   1.338       .  A
N610       Cu616   2.045       .  S
C611        C612   1.377       .  A
C611        H614   1.082       .  S
C612        C613   1.389       .  A
C612        C660   1.474       .  S
C613        H615   1.081       .  S
Cu616       N619   2.050       .  S
Cu617       N627   2.090       .  S
Cu618       N620   2.058       .  S
Cu618       N626   2.060       .  S
N619        N620   1.320       .  A
N619        C623   1.339       .  A
N620        C621   1.344       .  A
C621        C622   1.381       .  A
C621        H624   1.082       .  S
C622        C623   1.378       .  A
C622        C650   1.462       .  S
C623        H625   1.082       .  S
N626        N627   1.323       .  A
N626        C630   1.341       .  A
N627        C628   1.349       .  A
C628        C629   1.387       .  A
C628        H631   1.081       .  S
C629        C630   1.380       .  A
C629        C930   1.478       .  S
C630        H632   1.081       .  S
C633        C634   1.373       .  D
C633        C663   1.487       .  S
C633        C860   1.502       .  S
C634        C673   1.490       .  S
C634        C813   1.505       .  S
O635       Cu643   1.986       .  S
O635        C645   1.275       .  A
O636       Cu643   1.989       .  S
O636        C646   1.275       .  A
O637       Cu643   2.007       .  S
O637        C647   1.277       .  A
O638       Cu643   2.001       .  S
O638        C648   1.277       .  A
O639       Cu644   1.980       .  S
O639        C648   1.274       .  A
O640       Cu644   1.979       .  S
O640        C647   1.274       .  A
O641       Cu644   1.989       .  S
O641        C646   1.275       .  A
O642       Cu644   1.988       .  S
O642        C645   1.276       .  A
Cu643      Cu644   2.381       .  S
C645        C793   1.458       .  S
C646        C700   1.452       .  S
C647        C733   1.460       .  S
C648        C653   1.454       .  S
C649        C650   1.403       .  A
C649        C654   1.398       .  A
C649        H656   1.083       .  S
C650        C651   1.409       .  A
C651        C652   1.391       .  A
C651       Br658   1.920       .  S
C652        C653   1.398       .  A
C652        H657   1.084       .  S
C653        C654   1.405       .  A
C654       Br655   1.919       .  S
C659        C660   1.403       .  A
C659        C664   1.404       .  A
C659        H666   1.083       .  S
C660        C661   1.411       .  A
C661        C662   1.391       .  A
C661       Br668   1.922       .  S
C662        C663   1.401       .  A
C662        H667   1.083       .  S
C663        C664   1.412       .  A
C664       Br665   1.916       .  S
C669        C670   1.408       .  A
C669        C674   1.394       .  A
C669        H676   1.083       .  S
C670        C671   1.409       .  A
C671        C672   1.402       .  A
C671       Br678   1.917       .  S
C672        C673   1.408       .  A
C672        H677   1.083       .  S
C673        C674   1.407       .  A
C674       Br675   1.918       .  S
C679        C680   1.404       .  A
C679        C684   1.393       .  A
C679        H686   1.083       .  S
C680        C681   1.411       .  A
C681        C682   1.394       .  A
C681       Br688   1.922       .  S
C682        C683   1.402       .  A
C682        H687   1.083       .  S
C683        C684   1.407       .  A
C684       Br685   1.920       .  S
C689        C690   1.399       .  A
C689        C694   1.397       .  A
C689        H696   1.084       .  S
C690        C691   1.401       .  A
C691        C692   1.390       .  A
C691       Br698   1.921       .  S
C692        C693   1.407       .  A
C692        H697   1.082       .  S
C693        C694   1.413       .  A
C694       Br695   1.919       .  S
C699        C700   1.396       .  A
C699        C704   1.391       .  A
C699        H706   1.084       .  S
C700        C701   1.401       .  A
C701        C702   1.397       .  A
C701       Br708   1.919       .  S
C702        C703   1.408       .  A
C702        H707   1.083       .  S
C703        C704   1.415       .  A
C704       Br705   1.922       .  S
C709        C710   1.404   1_554  A
C709        C714   1.393       .  A
C709        H716   1.083   1_554  S
C710        C711   1.418   1_556  A
C711        C712   1.403       .  A
C711       Br718   1.916   1_554  S
C712        C713   1.400       .  A
C712        H717   1.083       .  S
C713        C714   1.410       .  A
C714       Br715   1.922       .  S
C719        C720   1.399       .  A
C719        C724   1.397       .  A
C719        H726   1.083       .  S
C720        C721   1.411   1_556  A
C721        C722   1.401       .  A
C721       Br728   1.913       .  S
C722        C723   1.403   1_554  A
C722        H727   1.083       .  S
C723        C724   1.419       .  A
C724       Br725   1.922       .  S
C729        C730   1.403       .  A
C729        C734   1.391       .  A
C729        H736   1.083       .  S
C730        C731   1.411       .  A
C731        C732   1.398       .  A
C731       Br738   1.919       .  S
C732        C733   1.401       .  A
C732        H737   1.083       .  S
C733        C734   1.406       .  A
C734       Br735   1.922       .  S
C739        C740   1.400   1_554  A
C739        C744   1.399       .  A
C739        H746   1.083       .  S
C740        C741   1.411       .  A
C741        C742   1.395       .  A
C741       Br748   1.920       .  S
C742        C743   1.402       .  A
C742        H747   1.083       .  S
C743        C744   1.411   1_556  A
C744       Br745   1.915       .  S
C749        C750   1.405       .  A
C749        C754   1.393       .  A
C749        H756   1.082       .  S
C750        C751   1.412       .  A
C751        C752   1.394       .  A
C751       Br758   1.920       .  S
C752        C753   1.400       .  A
C752        H757   1.084       .  S
C753        C754   1.406       .  A
C754       Br755   1.918       .  S
C759        C760   1.400       .  A
C759        C764   1.390       .  A
C759        H766   1.084       .  S
C760        C761   1.405       .  A
C761        C762   1.405       .  A
C761       Br768   1.915       .  S
C762        C763   1.410   1_554  A
C762        H767   1.083   1_554  S
C763        C764   1.413   1_556  A
C764       Br765   1.921       .  S
C769        C770   1.406       .  A
C769        C774   1.397       .  A
C769        H776   1.083       .  S
C770        C771   1.416       .  A
C771        C772   1.390       .  A
C771       Br778   1.922       .  S
C772        C773   1.395       .  A
C772        H777   1.081       .  S
C773        C774   1.406       .  A
C774       Br775   1.920       .  S
C779        C780   1.402       .  A
C779        C784   1.389       .  A
C779        H786   1.083       .  S
C780        C781   1.417       .  A
C781        C782   1.402       .  A
C781       Br788   1.915       .  S
C782        C783   1.400       .  A
C782        H787   1.083       .  S
C783        C784   1.410       .  A
C784       Br785   1.923       .  S
C789        C790   1.405       .  A
C789        C794   1.389       .  A
C789        H796   1.082       .  S
C790        C791   1.411       .  A
C791        C792   1.395       .  A
C791       Br798   1.920       .  S
C792        C793   1.401       .  A
C792        H797   1.084       .  S
C793        C794   1.405       .  A
C794       Br795   1.922       .  S
C799        C800   1.413       .  A
C799        C804   1.390       .  A
C799        H806   1.079       .  S
C800        C801   1.414       .  A
C801        C802   1.402       .  A
C801       Br808   1.917       .  S
C802        C803   1.404       .  A
C802        H807   1.081       .  S
C803        C804   1.400       .  A
C804       Br805   1.919       .  S
C809        C810   1.413       .  A
C809        C814   1.406       .  A
C809        H816   1.081       .  S
C810        C811   1.418       .  A
C811        C812   1.403       .  A
C811       Br818   1.919       .  S
C812        C813   1.405       .  A
C812        H817   1.083       .  S
C813        C814   1.409       .  A
C814       Br815   1.916       .  S
C819        C820   1.404       .  A
C819        C824   1.399       .  A
C819        H826   1.082       .  S
C820        C821   1.415       .  A
C821        C822   1.408       .  A
C821       Br828   1.917       .  S
C822        C823   1.407       .  A
C822        H827   1.080       .  S
C823        C824   1.412       .  A
C824       Br825   1.912       .  S
C829        C830   1.405       .  A
C829        C834   1.399       .  A
C829        H836   1.083       .  S
C830        C831   1.413       .  A
C831        C832   1.406       .  A
C831       Br838   1.917       .  S
C832        C833   1.407       .  A
C832        H837   1.083       .  S
C833        C834   1.411       .  A
C834       Br835   1.918       .  S
C839        C840   1.403       .  A
C839        C844   1.399       .  A
C839        H846   1.083       .  S
C840        C841   1.412       .  A
C841        C842   1.407       .  A
C841       Br848   1.917       .  S
C842        C843   1.409       .  A
C842        H847   1.082       .  S
C843        C844   1.413       .  A
C844       Br845   1.914       .  S
C849        C850   1.406   1_455  A
C849        C854   1.406       .  A
C849        H856   1.083   1_455  S
C850        C851   1.415   1_655  A
C851        C852   1.407       .  A
C851       Br858   1.919   1_455  S
C852        C853   1.407       .  A
C852        H857   1.083       .  S
C853        C854   1.416       .  A
C854       Br855   1.919       .  S
C859        C860   1.405       .  A
C859        C864   1.398       .  A
C859        H866   1.083       .  S
C860        C861   1.412       .  A
C861        C862   1.407       .  A
C861       Br868   1.916       .  S
C862        C863   1.407       .  A
C862        H867   1.083       .  S
C863        C864   1.412       .  A
C864       Br865   1.920       .  S
C869        C870   1.416       .  A
C869        C874   1.408       .  A
C869        H876   1.080       .  S
C870        C871   1.420       .  A
C871        C872   1.398       .  A
C871       Br878   1.919       .  S
C872        C873   1.403       .  A
C872        H877   1.081       .  S
C873        C874   1.409       .  A
C874       Br875   1.916       .  S
C879        C880   1.412       .  A
C879        C884   1.407       .  A
C879        H886   1.082       .  S
C880        C881   1.416       .  A
C881        C882   1.401       .  A
C881       Br888   1.920       .  S
C882        C883   1.407       .  A
C882        H887   1.083       .  S
C883        C884   1.413       .  A
C884       Br885   1.917       .  S
C889        C890   1.401       .  A
C889        C894   1.398       .  A
C889        H896   1.079       .  S
C890        C891   1.407       .  A
C891        C892   1.408       .  A
C891       Br898   1.917       .  S
C892        C893   1.415       .  A
C892        H897   1.081       .  S
C893        C894   1.418       .  A
C894       Br895   1.920       .  S
C899        C900   1.409       .  A
C899        C904   1.407       .  A
C899        H906   1.083       .  S
C900        C901   1.417       .  A
C901        C902   1.405       .  A
C901       Br908   1.919       .  S
C902        C903   1.405       .  A
C902        H907   1.083       .  S
C903        C904   1.412       .  A
C904       Br905   1.919       .  S
C909        C910   1.399       .  A
C909        C914   1.397       .  A
C909        H916   1.083       .  S
C910        C911   1.409       .  A
C911        C912   1.402       .  A
C911       Br918   1.918       .  S
C912        C913   1.402       .  A
C912        H917   1.083       .  S
C913        C914   1.412       .  A
C914       Br915   1.921       .  S
C919        C920   1.405       .  A
C919        C924   1.395       .  A
C919        H926   1.083       .  S
C920        C921   1.415       .  A
C921        C922   1.391       .  A
C921       Br928   1.921       .  S
C922        C923   1.395       .  A
C922        H927   1.084       .  S
C923        C924   1.403       .  A
C924       Br925   1.918       .  S
C929        C930   1.403   1_545  A
C929        C934   1.401       .  A
C929        H936   1.083   1_545  S
C930        C931   1.414   1_565  A
C931        C932   1.398       .  A
C931       Br938   1.921       .  S
C932        C933   1.400       .  A
C932        H937   1.084       .  S
C933        C934   1.406       .  A
C934       Br935   1.917       .  S
C939        C940   1.399       .  A
C939        C944   1.399       .  A
C939        H946   1.083       .  S
C940        C941   1.411       .  A
C941        C942   1.395       .  A
C941       Br948   1.920       .  S
C942        C943   1.403       .  A
C942        H947   1.083       .  S
C943        C944   1.413       .  A
C944       Br945   1.917       .  S
C949        C950   1.402       .  A
C949        C954   1.390       .  A
C949        H956   1.083       .  S
C950        C951   1.416       .  A
C951        C952   1.404       .  A
C951       Br958   1.917       .  S
C952        C953   1.402       .  A
C952        H957   1.083       .  S
C953        C954   1.410       .  A
C954       Br955   1.923       .  S
C959        C960   1.400       .  A
C959        C964   1.399       .  A
C959        H966   1.083       .  S
C960        C961   1.410       .  A
C961        C962   1.399       .  A
C961       Br968   1.919       .  S
C962        C963   1.401       .  A
C962        H967   1.083       .  S
C963        C964   1.412       .  A
C964       Br965   1.920       .  S
C969        C970   1.406       .  A
C969        C974   1.392       .  A
C969        H976   1.082       .  S
C970        C971   1.412       .  A
C971        C972   1.395       .  A
C971       Br978   1.920       .  S
C972        C973   1.400       .  A
C972        H977   1.083       .  S
C973        C974   1.404       .  A
C974       Br975   1.922       .  S
C979        C980   1.401       .  A
C979        C984   1.389       .  A
C979        H986   1.084       .  S
C980        C981   1.406       .  A
C981        C982   1.405       .  A
C981       Br988   1.915       .  S
C982        C983   1.409       .  A
C982        H987   1.083       .  S
C983        C984   1.412       .  A
C984       Br985   1.921       .  S
C989        C990   1.405       .  A
C989        C994   1.387       .  A
C989        H996   1.082       .  S
C990        C991   1.414       .  A
C991        C992   1.407       .  A
C991       Br998   1.916       .  S
C992        C993   1.404   1_545  A
C992        H997   1.083   1_545  S
C993        C994   1.407   1_565  A
C994       Br995   1.925   1_545  S
C999       C1000   1.411       .  A
C999       C1004   1.390       .  A
C999       H1006   1.080       .  S
C1000      C1001   1.414       .  A
C1001      C1002   1.404       .  A
C1001     Br1008   1.917       .  S
C1002      C1003   1.404       .  A
C1002      H1007   1.083       .  S
C1003      C1004   1.402       .  A
C1004     Br1005   1.920       .  S
C1009      C1010   1.404       .  A
C1009      C1014   1.390       .  A
C1009      H1016   1.083       .  S
C1010      C1011   1.409       .  A
C1011      C1012   1.398       .  A
C1011     Br1018   1.920       .  S
C1012      C1013   1.404       .  A
C1012      H1017   1.083       .  S
C1013      C1014   1.405       .  A
C1014     Br1015   1.921       .  S
C1019      C1020   1.398       .  A
C1019      C1024   1.393       .  A
C1019      H1026   1.084       .  S
C1020      C1021   1.403       .  A
C1021      C1022   1.394       .  A
C1021     Br1028   1.921       .  S
C1022      C1023   1.408       .  A
C1022      H1027   1.083       .  S
C1023      C1024   1.414       .  A
C1024     Br1025   1.920       .  S
C1029      C1030   1.404   1_556  A
C1029      C1034   1.406       .  A
C1029      H1036   1.083       .  S
C1030      C1031   1.405       .  A
C1031      C1032   1.395       .  A
C1031     Br1038   1.920       .  S
C1032      C1033   1.406       .  A
C1032      H1037   1.083       .  S
C1033      C1034   1.412   1_554  A
C1034     Br1035   1.917       .  S
C1039      C1040   1.405       .  A
C1039      C1044   1.396       .  A
C1039      H1046   1.083       .  S
C1040      C1041   1.415       .  A
C1041      C1042   1.391       .  A
C1041     Br1048   1.922       .  S
C1042      C1043   1.396       .  A
C1042      H1047   1.084       .  S
C1043      C1044   1.405       .  A
C1044     Br1045   1.919       .  S
C1049      C1050   1.405   1_556  A
C1049      C1054   1.403       .  A
C1049      H1056   1.083       .  S
C1050      C1051   1.404       .  A
C1051      C1052   1.397       .  A
C1051     Br1058   1.918       .  S
C1052      C1053   1.405   1_554  A
C1052      H1057   1.083       .  S
C1053      C1054   1.407       .  A
C1054     Br1055   1.918       .  S
C1059      C1060   1.397       .  A
C1059      C1064   1.396       .  A
C1059      H1066   1.084       .  S
C1060      C1061   1.402       .  A
C1061      C1062   1.391       .  A
C1061     Br1068   1.920       .  S
C1062      C1063   1.406       .  A
C1062      H1067   1.083       .  S
C1063      C1064   1.417       .  A
C1064     Br1065   1.923       .  S
C1069      C1070   1.398       .  A
C1069      C1074   1.396       .  A
C1069      H1076   1.083       .  S
C1070      C1071   1.408   1_554  A
C1071      C1072   1.400       .  A
C1071     Br1078   1.915       .  S
C1072      C1073   1.405   1_556  A
C1072      H1077   1.083       .  S
C1073      C1074   1.421       .  A
C1074     Br1075   1.922       .  S
C1079      C1080   1.410       .  A
C1079      C1084   1.408       .  A
C1079      H1086   1.083   1_556  S
C1080      C1081   1.411       .  A
C1081      C1082   1.388       .  A
C1081     Br1088   1.921       .  S
C1082      C1083   1.402       .  A
C1082      H1087   1.083       .  S
C1083      C1084   1.408       .  A
C1084     Br1085   1.915       .  S
C1089      C1090   1.404       .  A
C1089      C1094   1.407       .  A
C1089      H1096   1.083       .  S
C1090      C1091   1.410       .  A
C1091      C1092   1.388       .  A
C1091     Br1098   1.925       .  S
C1092      C1093   1.404       .  A
C1092      H1097   1.083       .  S
C1093      C1094   1.413       .  A
C1094     Br1095   1.916       .  S
C1099      C1100   1.401       .  A
C1099      C1104   1.397       .  A
C1099      H1106   1.084       .  S
C1100      C1101   1.404       .  A
C1101      C1102   1.387       .  A
C1101     Br1108   1.920       .  S
C1102      C1103   1.399       .  A
C1102      H1107   1.084       .  S
C1103      C1104   1.407       .  A
C1104     Br1105   1.919       .  S
C1109      C1110   1.398   1_556  A
C1109      C1114   1.392       .  A
C1109      H1116   1.081       .  S
C1110      C1111   1.414       .  A
C1111      C1112   1.400       .  A
C1111     Br1118   1.913       .  S
C1112      C1113   1.401   1_554  A
C1112      H1117   1.083       .  S
C1113      C1114   1.415       .  A
C1114     Br1115   1.923       .  S
C1119      C1120   1.405       .  A
C1119      C1124   1.398       .  A
C1119      H1126   1.083       .  S
C1120      C1121   1.408   1_554  A
C1121      C1122   1.400       .  A
C1121     Br1128   1.919       .  S
C1122      C1123   1.405   1_545  A
C1122      H1127   1.083       .  S
C1123      C1124   1.408   1_566  A
C1124     Br1125   1.919   1_545  S
C1129      C1130   1.402       .  A
C1129      C1134   1.395       .  A
C1129      H1136   1.083       .  S
C1130      C1131   1.414       .  A
C1131      C1132   1.392       .  A
C1131     Br1138   1.922       .  S
C1132      C1133   1.398       .  A
C1132      H1137   1.084       .  S
C1133      C1134   1.407       .  A
C1134     Br1135   1.920       .  S
C1139      C1140   1.409       .  A
C1139      C1144   1.404       .  A
C1139      H1146   1.081       .  S
C1140      C1141   1.407       .  A
C1141      C1142   1.388       .  A
C1141     Br1148   1.919       .  S
C1142      C1143   1.404       .  A
C1142      H1147   1.083       .  S
C1143      C1144   1.407       .  A
C1144     Br1145   1.916       .  S
C1149      C1150   1.403       .  A
C1149      C1154   1.397       .  A
C1149      H1156   1.083       .  S
C1150      C1151   1.413       .  A
C1151      C1152   1.406       .  A
C1151     Br1158   1.917       .  S
C1152      C1153   1.408       .  A
C1152      H1157   1.083       .  S
C1153      C1154   1.411       .  A
C1154     Br1155   1.915       .  S
C1159      C1160   1.406       .  A
C1159      C1164   1.401       .  A
C1159      H1166   1.083       .  S
C1160      C1161   1.413       .  A
C1161      C1162   1.406       .  A
C1161     Br1168   1.917       .  S
C1162      C1163   1.407       .  A
C1162      H1167   1.081       .  S
C1163      C1164   1.411       .  A
C1164     Br1165   1.918       .  S
C1169      C1170   1.402       .  A
C1169      C1174   1.400       .  A
C1169      H1176   1.083       .  S
C1170      C1171   1.410       .  A
C1171      C1172   1.407       .  A
C1171     Br1178   1.917       .  S
C1172      C1173   1.410       .  A
C1172      H1177   1.082       .  S
C1173      C1174   1.416       .  A
C1174     Br1175   1.920       .  S
C1179      C1180   1.405       .  A
C1179      C1184   1.401       .  A
C1179      H1186   1.080       .  S
C1180      C1181   1.407       .  A
C1181      C1182   1.404       .  A
C1181     Br1188   1.913       .  S
C1182      C1183   1.412       .  A
C1182      H1187   1.081       .  S
C1183      C1184   1.416       .  A
C1184     Br1185   1.919       .  S
C1189      C1190   1.406       .  A
C1189      C1194   1.405       .  A
C1189      H1196   1.083       .  S
C1190      C1191   1.416       .  A
C1191      C1192   1.408       .  A
C1191     Br1198   1.919       .  S
C1192      C1193   1.406   1_455  A
C1192      H1197   1.083   1_455  S
C1193      C1194   1.414   1_655  A
C1194     Br1195   1.919   1_455  S
C1199      C1200   1.403       .  A
C1199      C1204   1.399       .  A
C1199      H1206   1.082       .  S
C1200      C1201   1.418       .  A
C1201      C1202   1.408       .  A
C1201     Br1208   1.918       .  S
C1202      C1203   1.406       .  A
C1202      H1207   1.082       .  S
C1203      C1204   1.416       .  A
C1204     Br1205   1.920       .  S
C1209      C1210   1.412       .  A
C1209      C1214   1.408       .  A
C1209      H1216   1.082       .  S
C1210      C1211   1.416       .  A
C1211      C1212   1.401       .  A
C1211     Br1218   1.920       .  S
C1212      C1213   1.408       .  A
C1212      H1217   1.080       .  S
C1213      C1214   1.413       .  A
C1214     Br1215   1.915       .  S
C1219      C1220   1.406       .  A
C1219      C1224   1.400       .  A
C1219      H1226   1.078       .  S
C1220      C1221   1.410       .  A
C1221      C1222   1.408       .  A
C1221     Br1228   1.915       .  S
C1222      C1223   1.413       .  A
C1222      H1227   1.082       .  S
C1223      C1224   1.415       .  A
C1224     Br1225   1.920       .  S
C1229      C1230   1.406       .  A
C1229      C1234   1.402       .  A
C1229      H1236   1.082       .  S
C1230      C1231   1.412       .  A
C1231      C1232   1.404       .  A
C1231     Br1238   1.918       .  S
C1232      C1233   1.405       .  A
C1232      H1237   1.075       .  S
C1233      C1234   1.412       .  A
C1234     Br1235   1.917       .  S
C1239      C1240   1.407       .  A
C1239      C1244   1.409       .  A
C1239      H1246   1.083       .  S
C1240      C1241   1.415       .  A
C1241      C1242   1.406       .  A
C1241     Br1248   1.919       .  S
C1242      C1243   1.406       .  A
C1242      H1247   1.083       .  S
C1243      C1244   1.416       .  A
C1244     Br1245   1.919       .  S
