geometry optimzed in LAMMPS
_audit_creation_date              2020-11-30 
_audit_creation_method            'lammps2cif' 
_symmetry_space_group_name_H-M    'P1' 
_symmetry_Int_Tables_number       1 
_symmetry_cell_setting            triclinic 
loop_ 
_symmetry_equiv_pos_as_xyz 
  x,y,z 
_cell_length_a                    36.94719871 
_cell_length_b                    36.474234558769204 
_cell_length_c                    43.16032610131737 
_cell_angle_alpha                 88.43887159121452 
_cell_angle_beta                  89.06825536718883 
_cell_angle_gamma                 90.89295617877528 
loop_ 
_atom_site_label 
_atom_site_type_symbol 
_atom_site_fract_x 
_atom_site_fract_y 
_atom_site_fract_z 
_atom_site_charge 
Zr1        Zr  0.77989476  0.17024671  0.43130113     2.17500
O2          O  0.79123919  0.22157458  0.39499087    -0.52100
O3          O  0.72526245  0.14347269  0.41228095    -0.75300
O4          O  0.78325733  0.14264508  0.37905231    -0.82100
O5          O  0.75300977  0.23088340  0.99893050    -0.83800
O6          O  0.81267658  0.08840034  0.38331408    -0.79400
O7          O  0.74390624  0.22381021  0.44655170    -0.91100
O8          O  0.69828181  0.12521706  0.45730723    -0.77000
O9          O  0.77100893  0.10602189  0.44083655    -0.86500
O10         O  0.75266986  0.16013208  0.98200118    -0.86200
O11         O  0.83915098  0.14448215  0.42779225    -0.73000
O12         O  0.82241615  0.19492995  0.46756164    -0.85100
Zr13       Zr  0.84570466  0.08971698  0.02367762     2.26400
Zr14       Zr  0.82922644  0.08002874  0.43685342     2.06300
Zr15       Zr  0.79456576  0.18345907  0.01809480     2.10000
Zr16       Zr  0.74478513  0.09653459  0.99023852     1.78800
O17         O  0.82677344  0.24051935  0.02823182    -0.93900
O18         O  0.71117113  0.04486505  0.47169938    -0.41700
O19         O  0.78691919  0.11829268  0.02709019    -0.78300
O20         O  0.80222397  0.06867844  0.98660874    -0.97000
O21         O  0.87226269  0.10098535  0.47328639    -0.90300
O22         O  0.85300342  0.15530423  0.01668234    -0.93200
C23         C  0.69958801  0.12760452  0.42768482     1.00600
C24         C  0.73839420  0.23994362  0.97291442     1.13500
C25         C  0.79594507  0.11280222  0.36757790     1.04300
O26         O  0.80264171  0.02601711  0.41364024    -0.95300
O27         O  0.84591186  0.02103106  0.45628578    -0.91100
O28         O  0.85159643  0.02299855  0.00894079    -0.84200
C29         C  0.84830104  0.00555868  0.48299349     1.10900
O30         O  0.90130700  0.21916897  0.43550068    -0.97300
Zr31       Zr  0.88014857  0.16561365  0.46618568     1.88900
O32         O  0.91232255  0.08850932  0.02755806    -0.74000
O33         O  0.88753221  0.07395561  0.41038072    -0.53200
O34         O  0.91918789  0.15061070  0.42250655    -0.97900
O35         O  0.91039655  0.21293879  0.99828035    -0.55100
O36         O  0.92911669  0.13173933  0.99122796    -0.74500
C37         C  0.93648223  0.10633311  0.01120502     0.97900
O38         O  0.83762531  0.04919104  0.06917518    -0.63300
O39         O  0.74774225  0.19337493  0.05730798    -0.58100
O40         O  0.84299138  0.11948533  0.07520063    -0.94800
O41         O  0.80979224  0.17171789  0.07142148    -0.93200
O42         O  0.70427316  0.11520515  0.03173368    -0.93600
O43         O  0.72556706  0.04520649  0.02418710    -0.92300
C44         C  0.82789472  0.14804181  0.08690494     1.16700
H45         H  0.72928306  0.17115792  0.98443043     0.32700
H46         H  0.79561838  0.04319695  0.98963594     0.43500
H47         H  0.86825004  0.16497255  0.03256595     0.37000
H48         H  0.84942919  0.14919585  0.40732063     0.33500
H49         H  0.69111533  0.04869651  0.96598007     0.25300
H50         H  0.89373795  0.04779021  0.41322529     0.31200
H51         H  0.93072418  0.12744299  0.42909755     0.37200
H52         H  0.71832167  0.11234666  0.05097023     0.31600
H53         H  0.74780093  0.22022111  0.06028096     0.30500
H54         H  0.83450585  0.23797872  0.05004876     0.32200
H55         H  0.91752318  0.20281328  0.51446157     0.31100
H56         H  0.74798960  0.03719599  0.03448800     0.35100
H57         H  0.81861272  0.03123703  0.06353471     0.27900
H58         H  0.77584661  0.21648713  0.37702914     0.32100
H59         H  0.92813622  0.21907138  0.43628910     0.35000
H60         H  0.72464518  0.18809341  0.04696302     0.27600
H61         H  0.86011818  0.03491025  0.07026919     0.40400
H62         H  0.77619070  0.02924575  0.41574782     0.30500
H63         H  0.72139342  0.04143234  0.45073416     0.38100
H64         H  0.89070858  0.22869841  0.00569351     0.30000
H65         H  0.88240896  0.07685921  0.38798769     0.30000
H66         H  0.81632182  0.21804807  0.38728787     0.30300
Zr67       Zr  0.84857472  0.09221023  0.26649851     2.17500
O68         O  0.88538407  0.06242879  0.30640669    -0.52100
O69         O  0.84440076  0.02415779  0.25350191    -0.75300
O70         O  0.82173169  0.09291413  0.32006179    -0.82100
O71         O  0.92503765  0.12002020  0.21869956    -0.83800
O72         O  0.76643520  0.11918729  0.31886427    -0.79400
O73         O  0.91419716  0.09625837  0.26706780    -0.91100
O74         O  0.83336254  0.01895486  0.20247383    -0.77000
O75         O  0.79080395  0.07288269  0.24918167    -0.86500
O76         O  0.85719239  0.08820083  0.21177787    -0.86200
O77         O  0.81106753  0.14411028  0.27791731    -0.73000
O78         O  0.85981451  0.15119829  0.24404841    -0.85100
Zr79       Zr  0.77282534  0.17682828  0.18512382     2.26400
Zr80       Zr  0.75214954  0.12264998  0.26334094     2.06300
Zr81       Zr  0.87325070  0.14846005  0.19221178     2.10000
Zr82       Zr  0.79871723  0.07110622  0.19368512     1.78800
O83         O  0.90576621  0.20723047  0.18976514    -0.93900
O84         O  0.75306423  0.02319751  0.20426941    -0.41700
O85         O  0.81540128  0.13016527  0.17528249    -0.78300
O86         O  0.75770540  0.11643549  0.20780093    -0.97000
O87         O  0.76702927  0.18173128  0.24013310    -0.90300
O88         O  0.83159370  0.19804956  0.20054529    -0.93200
C89         C  0.84100981  0.00494153  0.22856468     1.00600
C90         C  0.93556874  0.10496369  0.24446331     1.13500
C91         C  0.79379627  0.10678460  0.33366719     1.04300
O92         O  0.72360151  0.06198878  0.26657194    -0.95300
O93         O  0.70342308  0.15541785  0.23773744    -0.91100
O94         O  0.70867632  0.16066703  0.18675169    -0.84200
C95         C  0.69212713  0.14742517  0.21089067     1.10900
O96         O  0.86939647  0.21336702  0.29491609    -0.97300
Zr97       Zr  0.82473515  0.20258850  0.25511567     1.88900
O98         O  0.75891095  0.24075315  0.19737082    -0.74000
O99         O  0.70316048  0.14187707  0.29772888    -0.53200
O100        O  0.80522749  0.22651429  0.30495617    -0.97900
O101        O  0.86380649  0.25356582  0.23777137    -0.55100
O102        O  0.77171271  0.24423776  0.24805470    -0.74500
C103        C  0.75367423  0.25484391  0.22400200     0.97900
O104        O  0.74290891  0.20321069  0.13985127    -0.63300
O105        O  0.92163375  0.13940947  0.15395454    -0.58100
O106        O  0.80046310  0.16847362  0.13308278    -0.94800
O107        O  0.85644073  0.14360079  0.13678725    -0.93200
O108        O  0.82731564  0.05724143  0.14421400    -0.93600
O109        O  0.75769410  0.06422969  0.15048617    -0.92300
C110        C  0.82897880  0.15417379  0.12079426     1.16700
H111        H  0.87579889  0.07099174  0.20636966     0.32700
H112        H  0.73708271  0.10431774  0.19925189     0.43500
H113        H  0.83829582  0.22095971  0.18992863     0.37000
H114        H  0.81465920  0.15263328  0.29842913     0.33500
H115        H  0.75901413  0.00357290  0.18968996     0.25300
H116        H  0.69943926  0.12204377  0.31360553     0.31200
H117        H  0.80743087  0.25353831  0.30251674     0.37200
H118        H  0.85203039  0.06801908  0.14526419     0.31600
H119        H  0.94319584  0.15211231  0.16213763     0.30500
H120        H  0.90292984  0.21638530  0.16815148     0.32200
H121        H  0.88872750  0.24431515  0.23957341     0.31100
H122        H  0.75473877  0.08944049  0.14194561     0.35100
H123        H  0.72971370  0.18250068  0.13045841     0.27900
H124        H  0.87025927  0.04188441  0.31524934     0.32100
H125        H  0.87638097  0.18848705  0.30218059     0.35000
H126        H  0.92729729  0.11301373  0.15568737     0.27600
H127        H  0.72358910  0.21888264  0.14816253     0.40400
H128        H  0.72049532  0.05666532  0.28904385     0.30500
H129        H  0.75899147  0.01266933  0.22488268     0.38100
H130        H  0.86166566  0.27151240  0.25450489     0.30000
H131        H  0.71300569  0.16299837  0.30902757     0.30000
H132        H  0.88781246  0.07988826  0.32344151     0.30300
Zr133      Zr  0.62240432  0.28267137  0.50483787     2.17500
O134        O  0.64329211  0.24573563  0.04985453    -0.52100
O135        O  0.68933286  0.26933015  0.99814196    -0.75300
O136        O  0.60601903  0.21859383  0.49951352    -0.82100
O137        O  0.59444839  0.36293608  0.05642310    -0.83800
O138        O  0.58838006  0.21200151  0.44955443    -0.79400
O139        O  0.60870357  0.30235286  0.05718792    -0.91100
O140        O  0.70366696  0.28902597  0.44935030    -0.77000
O141        O  0.63865757  0.28236488  0.45135043    -0.86500
O142        O  0.64862414  0.34226938  0.49483859    -0.86200
O143        O  0.56670217  0.27193141  0.47746111    -0.73000
O144        O  0.57640817  0.32659316  0.51345522    -0.85100
Zr145      Zr  0.55895887  0.37263367  0.42050960     2.26400
Zr146      Zr  0.58413098  0.27225241  0.42342085     2.06300
Zr147      Zr  0.60114535  0.38599231  0.50171659     2.10000
Zr148      Zr  0.66420213  0.34171227  0.44122863     1.78800
O149        O  0.56819084  0.42918914  0.03261681    -0.93900
O150        O  0.69199406  0.33023551  0.39084830    -0.41700
O151        O  0.61533751  0.38434856  0.44771648    -0.78300
O152        O  0.61001317  0.33227879  0.41316002    -0.97000
O153        O  0.53486903  0.31311456  0.43305696    -0.90300
O154        O  0.54618669  0.37594559  0.47479532    -0.93200
C155        C  0.70809144  0.26767388  0.47309634     1.00600
C156        C  0.59822164  0.33157907  0.07066521     1.13500
C157        C  0.59434238  0.19948273  0.47721842     1.04300
O158        O  0.62196087  0.23261710  0.39254620    -0.95300
O159        O  0.58488754  0.29143642  0.36823739    -0.91100
O160        O  0.56932492  0.35159061  0.36721625    -0.84200
C161        C  0.58004245  0.32239614  0.35381438     1.10900
O162        O  0.50313423  0.26623049  0.02457295    -0.97300
Zr163      Zr  0.52172701  0.31590628  0.48750359     1.88900
O164        O  0.49049285  0.36950588  0.42480509    -0.74000
O165        O  0.52955848  0.24111897  0.40609752    -0.53200
O166        O  0.47303247  0.28272092  0.46240199    -0.97900
O167        O  0.50273951  0.33493033  0.03959344    -0.55100
O168        O  0.48138862  0.36320804  0.47596181    -0.74500
C169        C  0.46930083  0.36815714  0.44905653     0.97900
O170        O  0.53847542  0.41541462  0.38013231    -0.63300
O171        O  0.65742179  0.41584097  0.02080884    -0.58100
O172        O  0.57059695  0.43833167  0.42417855    -0.94800
O173        O  0.59931036  0.44354149  0.47016148    -0.93200
O174        O  0.71333196  0.37117005  0.46881587    -0.93600
O175        O  0.68796863  0.39497951  0.41177008    -0.92300
C176        C  0.58752036  0.45701821  0.44421425     1.16700
H177        H  0.66889029  0.34625155  0.50816830     0.32700
H178        H  0.62161373  0.33565361  0.39322290     0.43500
H179        H  0.53187584  0.39720235  0.47918866     0.37000
H180        H  0.55365980  0.25049243  0.48382332     0.33500
H181        H  0.71803132  0.32697550  0.39506403     0.25300
H182        H  0.52659764  0.24972062  0.38436613     0.31200
H183        H  0.48304071  0.25825828  0.45838980     0.37200
H184        H  0.73524673  0.36704111  0.45592789     0.31600
H185        H  0.65153047  0.44222576  0.02138041     0.30500
H186        H  0.58642250  0.44183493  0.04523459     0.32200
H187        H  0.49240451  0.35885852  0.53619162     0.31100
H188        H  0.68131423  0.41630653  0.42426825     0.35100
H189        H  0.55917937  0.41965424  0.36554783     0.27900
H190        H  0.66402737  0.25937975  0.05840242     0.32100
H191        H  0.51658780  0.25654341  0.53198040     0.35000
H192        H  0.65872293  0.40789212  0.04285208     0.27600
H193        H  0.52021739  0.40164066  0.36820581     0.40400
H194        H  0.64533888  0.24616437  0.39001782     0.30500
H195        H  0.68311019  0.30550965  0.38551542     0.38100
H196        H  0.51816958  0.33083925  0.55224883     0.30000
H197        H  0.53639478  0.21505826  0.40453441     0.30000
H198        H  0.65426158  0.22338798  0.04146483     0.30300
Zr199      Zr  0.63473547  0.28637713  0.25629655     2.17500
O200        O  0.65715327  0.25475657  0.30252855    -0.52100
O201        O  0.70089084  0.27711167  0.25063428    -0.75300
O202        O  0.62614453  0.22270525  0.24610448    -0.82100
O203        O  0.58717123  0.35780392  0.30684502    -0.83800
O204        O  0.63396127  0.22498180  0.19452615    -0.79400
O205        O  0.60797516  0.29931630  0.30796744    -0.91100
O206        O  0.71626767  0.30450548  0.20460855    -0.77000
O207        O  0.65278613  0.29146933  0.20287590    -0.86500
O208        O  0.65328766  0.34924228  0.24920294    -0.86200
O209        O  0.58239196  0.26904432  0.22556859    -0.73000
O210        O  0.58281986  0.32310684  0.26259740    -0.85100
Zr211      Zr  0.56421588  0.37329590  0.17263794     2.26400
Zr212      Zr  0.60107180  0.27667531  0.17227277     2.06300
Zr213      Zr  0.59950795  0.38528583  0.25466644     2.10000
Zr214      Zr  0.67075356  0.35362617  0.19593182     1.78800
O215        O  0.56312945  0.42285048  0.28895217    -0.93900
O216        O  0.70347232  0.34682600  0.14672778    -0.41700
O217        O  0.61538403  0.38293402  0.20336046    -0.78300
O218        O  0.61988409  0.33975051  0.16442458    -0.97000
O219        O  0.54682951  0.31051754  0.18098093    -0.90300
O220        O  0.54713688  0.36905961  0.22609287    -0.93200
C221        C  0.72255122  0.28133739  0.22705728     1.00600
C222        C  0.59221210  0.32656609  0.32090177     1.13500
C223        C  0.62519013  0.20756431  0.21979420     1.04300
O224        O  0.62686931  0.23930957  0.13179952    -0.95300
O225        O  0.59965455  0.29836453  0.11834379    -0.91100
O226        O  0.57591446  0.35551098  0.11827425    -0.84200
C227        C  0.58995062  0.32812578  0.10434746     1.10900
O228        O  0.51539362  0.25137267  0.26705261    -0.97300
Zr229      Zr  0.53127894  0.30556096  0.23492777     1.88900
O230        O  0.49484465  0.37055015  0.17818348    -0.74000
O231        O  0.54711010  0.23891059  0.16484905    -0.53200
O232        O  0.49044565  0.26611303  0.20642347    -0.97900
O233        O  0.50466890  0.31922594  0.28529545    -0.55100
O234        O  0.48078279  0.34118183  0.22374302    -0.74500
C235        C  0.47175406  0.35954923  0.19984500     0.97900
O236        O  0.54020537  0.41601091  0.13349656    -0.63300
O237        O  0.65053450  0.41961113  0.27528571    -0.58100
O238        O  0.57199311  0.43939181  0.17689784    -0.94800
O239        O  0.58563366  0.44329434  0.22770852    -0.93200
O240        O  0.71217261  0.39062886  0.22613454    -0.93600
O241        O  0.69238689  0.40844245  0.16751328    -0.92300
C242        C  0.57844081  0.45794416  0.20093597     1.16700
H243        H  0.67222945  0.35536705  0.26349765     0.32700
H244        H  0.63102370  0.34550495  0.14456770     0.43500
H245        H  0.52828160  0.38600800  0.23128083     0.37000
H246        H  0.57194119  0.24498292  0.22978396     0.33500
H247        H  0.72930683  0.34471668  0.15227486     0.25300
H248        H  0.55180813  0.22611355  0.14533322     0.31200
H249        H  0.46608782  0.27014163  0.21545021     0.37200
H250        H  0.73657886  0.38242010  0.21998299     0.31600
H251        H  0.64856344  0.44460185  0.26602873     0.30500
H252        H  0.58033938  0.44053773  0.29796981     0.32200
H253        H  0.47816945  0.31707230  0.28261721     0.31100
H254        H  0.67008682  0.42047505  0.16039123     0.35100
H255        H  0.56027938  0.42220049  0.11868054     0.27900
H256        H  0.67665493  0.27090435  0.31019454     0.32100
H257        H  0.48860129  0.25017983  0.26788242     0.35000
H258        H  0.64452752  0.42243383  0.29755882     0.27600
H259        H  0.52267172  0.40155728  0.12147780     0.40400
H260        H  0.65312012  0.24497580  0.13195722     0.30500
H261        H  0.69652942  0.32210013  0.13982356     0.38100
H262        H  0.50931117  0.34583009  0.28763239     0.30000
H263        H  0.54780604  0.21944991  0.18126112     0.30000
H264        H  0.66987916  0.23294732  0.29492035     0.30300
Zr265      Zr  0.46342396  0.90552030  0.40267243     2.17500
O266        O  0.41036497  0.89863548  0.37025579    -0.52100
O267        O  0.47633838  0.84136027  0.39605468    -0.75300
O268        O  0.47581799  0.92101831  0.34800847    -0.82100
O269        O  0.40571840  0.90251728  0.47681543    -0.83800
O270        O  0.53503607  0.93812622  0.34418258    -0.79400
O271        O  0.40369068  0.89251660  0.42512795    -0.91100
O272        O  0.49450051  0.81155977  0.43776576    -0.77000
O273        O  0.52481485  0.88514593  0.40194302    -0.86500
O274        O  0.47613015  0.88012193  0.45287805    -0.86200
O275        O  0.49806765  0.96135507  0.39397709    -0.73000
O276        O  0.44948939  0.95152179  0.43988566    -0.85100
Zr277      Zr  0.55787729  0.96122158  0.98055054     2.26400
Zr278      Zr  0.55983139  0.94012266  0.39471736     2.06300
Zr279      Zr  0.46291327  0.92368696  0.98880666     2.10000
Zr280      Zr  0.53721885  0.85931552  0.45224639     1.78800
O281        O  0.42275710  0.96719718  0.01300121    -0.93900
O282        O  0.57124576  0.81928098  0.41848222    -0.41700
O283        O  0.52453548  0.90482524  0.98809550    -0.78300
O284        O  0.57441378  0.91400943  0.44417990    -0.97000
O285        O  0.54597095  0.98583315  0.43084979    -0.90300
O286        O  0.49849329  0.97995911  0.48180370    -0.93200
C287        C  0.46995943  0.81786915  0.41789871     1.00600
C288        C  0.38959269  0.89230091  0.45254353     1.13500
C289        C  0.50408822  0.93245297  0.33263209     1.04300
O290        O  0.60498295  0.89317041  0.38708329    -0.95300
O291        O  0.60048534  0.99083889  0.40130422    -0.91100
O292        O  0.60683840  0.99890351  0.45298522    -0.84200
C293        C  0.61385224  0.00712204  0.42429059     1.10900
O294        O  0.43739784  0.02690441  0.39875087    -0.97300
Zr295      Zr  0.48571565  0.00569753  0.43216308     1.88900
O296        O  0.55853544  0.02537300  0.99399931    -0.74000
O297        O  0.60166311  0.96211317  0.35351972    -0.53200
O298        O  0.50765434  0.05022755  0.39287920    -0.97900
O299        O  0.43816569  0.03787763  0.45962665    -0.55100
O300        O  0.51925363  0.05071875  0.46041218    -0.74500
C301        C  0.54279769  0.05301649  0.48180717     0.97900
O302        O  0.61269001  0.94425996  0.00765760    -0.63300
O303        O  0.44490646  0.87393962  0.02509744    -0.58100
O304        O  0.54129523  0.95341398  0.03577707    -0.94800
O305        O  0.48505466  0.92723874  0.03951568    -0.93200
O306        O  0.52285344  0.82170237  0.99564757    -0.93600
O307        O  0.58947801  0.83606992  0.97403311    -0.92300
C308        C  0.51377114  0.93989600  0.05127659     1.16700
H309        H  0.45925072  0.86116547  0.45947781     0.32700
H310        H  0.59979740  0.90825291  0.44526087     0.43500
H311        H  0.49134340  0.99527182  0.99975069     0.37000
H312        H  0.49232903  0.97475985  0.37518694     0.33500
H313        H  0.55942337  0.82116544  0.39811002     0.25300
H314        H  0.60339227  0.94220221  0.33843891     0.31200
H315        H  0.53409966  0.05191687  0.39597510     0.37200
H316        H  0.52387106  0.79611118  0.98864313     0.31600
H317        H  0.42279856  0.88257877  0.03575652     0.30500
H318        H  0.41278614  0.95395086  0.03164962     0.32200
H319        H  0.44774680  0.04192616  0.48056646     0.31100
H320        H  0.60973653  0.85195372  0.96622530     0.35100
H321        H  0.60875529  0.91806962  0.01364729     0.27900
H322        H  0.41751611  0.88191456  0.35364094     0.32100
H323        H  0.42449905  0.00417973  0.39286869     0.35000
H324        H  0.43637387  0.85362989  0.01223745     0.27600
H325        H  0.63176628  0.94404444  0.99133237     0.40400
H326        H  0.62844633  0.90543248  0.39133652     0.30500
H327        H  0.59525496  0.83128079  0.41514731     0.38100
H328        H  0.41851723  0.01939791  0.46295121     0.30000
H329        H  0.58918941  0.98224543  0.34238007     0.30000
H330        H  0.40716159  0.92279795  0.35969954     0.30300
Zr331      Zr  0.45985194  0.92408036  0.15201430     2.17500
O332        O  0.41230633  0.93244889  0.11404103    -0.52100
O333        O  0.46198263  0.85784452  0.14843270    -0.75300
O334        O  0.48501344  0.92659171  0.09925467    -0.82100
O335        O  0.39596091  0.91991565  0.22001528    -0.83800
O336        O  0.54113042  0.95317692  0.09804675    -0.79400
O337        O  0.39903256  0.90593012  0.16915313    -0.91100
O338        O  0.48162866  0.83398307  0.19328550    -0.77000
O339        O  0.52087277  0.90400327  0.15698286    -0.86500
O340        O  0.46452194  0.90204536  0.20443388    -0.86200
O341        O  0.49671738  0.97839913  0.14320398    -0.73000
O342        O  0.44132291  0.97326864  0.18472842    -0.85100
Zr343      Zr  0.54544699  0.98212847  0.23522709     2.26400
Zr344      Zr  0.55822742  0.95815080  0.15106820     2.06300
Zr345      Zr  0.44943845  0.95114203  0.23665625     2.10000
Zr346      Zr  0.52489151  0.88076987  0.20879000     1.78800
O347        O  0.41480432  0.00571223  0.24854214    -0.93900
O348        O  0.56021681  0.84312951  0.17347199    -0.41700
O349        O  0.50824723  0.93162875  0.23621408    -0.78300
O350        O  0.56484898  0.93319734  0.20258234    -0.97000
O351        O  0.54047458  0.00634727  0.18379660    -0.90300
O352        O  0.48560403  0.00490264  0.23004746    -0.93200
C353        C  0.45815152  0.83564469  0.17172676     1.00600
C354        C  0.38301842  0.90569794  0.19579397     1.13500
C355        C  0.51363502  0.93941075  0.08497817     1.04300
O356        O  0.60185511  0.90884366  0.15001074    -0.95300
O357        O  0.59845173  0.00741273  0.16622501    -0.91100
O358        O  0.60698783  0.99031154  0.21552980    -0.84200
C359        C  0.61419787  0.01149258  0.19211738     1.10900
O360        O  0.42904957  0.04524884  0.14625794    -0.97300
Zr361      Zr  0.48009663  0.02587073  0.17744067     1.88900
O362        O  0.54546202  0.04861860  0.23920532    -0.74000
O363        O  0.60538440  0.97829375  0.11370006    -0.53200
O364        O  0.49547074  0.06495138  0.13230314    -0.97900
O365        O  0.44379542  0.06775621  0.20763049    -0.55100
O366        O  0.52426186  0.06940016  0.19325314    -0.74500
C367        C  0.54279885  0.07326490  0.21764591     0.97900
O368        O  0.58479079  0.99092206  0.27954185    -0.63300
O369        O  0.40914403  0.93247522  0.28012235    -0.58100
O370        O  0.52872509  0.95861596  0.28678439    -0.94800
O371        O  0.47068464  0.93737967  0.28749370    -0.93200
O372        O  0.51088192  0.84269993  0.25468749    -0.93600
O373        O  0.57598170  0.85955871  0.23908110    -0.92300
C374        C  0.50093789  0.94318944  0.30025934     1.16700
H375        H  0.44755960  0.88283360  0.21065692     0.32700
H376        H  0.58945622  0.92612151  0.20665288     0.43500
H377        H  0.48027884  0.02333227  0.24510188     0.37000
H378        H  0.49325302  0.98889565  0.12273168     0.33500
H379        H  0.58530430  0.84342984  0.18126987     0.25300
H380        H  0.60881019  0.95798952  0.09912466     0.31200
H381        H  0.49100100  0.09028590  0.13904599     0.37200
H382        H  0.48513342  0.84769464  0.25940418     0.31600
H383        H  0.38486033  0.94196685  0.27508259     0.30500
H384        H  0.39169903  0.00253068  0.23755780     0.32200
H385        H  0.41839344  0.05970513  0.20488986     0.31100
H386        H  0.57863716  0.87785072  0.25541842     0.35100
H387        H  0.60862461  0.98085700  0.27384632     0.27900
H388        H  0.41522881  0.91223032  0.09936922     0.32100
H389        H  0.42768422  0.02713640  0.12967702     0.35000
H390        H  0.40652570  0.90550426  0.27920955     0.27600
H391        H  0.58896452  0.01779029  0.28072238     0.40400
H392        H  0.59638973  0.89563477  0.13084889     0.30500
H393        H  0.55154046  0.81766942  0.17760761     0.38100
H394        H  0.44587468  0.09155868  0.19606028     0.30000
H395        H  0.59482330  0.99844992  0.10116803     0.30000
H396        H  0.41936815  0.95493878  0.10197958     0.30300
Zr397      Zr  0.36454186  0.59838901  0.41183833     2.17500
O398        O  0.38518731  0.55405349  0.37388383    -0.52100
O399        O  0.43418105  0.60135416  0.41782724    -0.75300
O400        O  0.35360687  0.61617009  0.35648074    -0.82100
O401        O  0.33477454  0.53126494  0.46927596    -0.83800
O402        O  0.33600630  0.67545209  0.35419494    -0.79400
O403        O  0.35672301  0.53257034  0.41998299    -0.91100
O404        O  0.44238507  0.61256054  0.46804236    -0.77000
O405        O  0.38854400  0.65849483  0.41835688    -0.86500
O406        O  0.37801329  0.59851830  0.46554554    -0.86200
O407        O  0.31261663  0.63729170  0.40254553    -0.73000
O408        O  0.31102139  0.59413674  0.44279860    -0.85100
Zr409      Zr  0.30148502  0.69354751  0.49230933     2.26400
Zr410      Zr  0.33843964  0.69765174  0.40675107     2.06300
Zr411      Zr  0.32328290  0.58949219  0.49441567     2.10000
Zr412      Zr  0.40120112  0.65958633  0.47286394     1.78800
O413        O  0.26659786  0.56075926  0.51267582    -0.93900
O414        O  0.45006359  0.69413444  0.44605970    -0.41700
O415        O  0.34697720  0.64935887  0.50087699    -0.78300
O416        O  0.35572567  0.70135718  0.46015426    -0.97000
O417        O  0.28485341  0.68962307  0.43901165    -0.90300
O418        O  0.27569705  0.63309663  0.48765555    -0.93200
C419        C  0.45498030  0.60443174  0.44195645     1.00600
C420        C  0.34524548  0.51531425  0.44439625     1.13500
C421        C  0.34187910  0.64471515  0.34153581     1.04300
O422        O  0.39727300  0.72687603  0.39698916    -0.95300
O423        O  0.30910728  0.75068546  0.42754929    -0.91100
O424        O  0.31862587  0.75719055  0.47728397    -0.84200
C425        C  0.32450912  0.76792303  0.44903419     1.10900
O426        O  0.23761362  0.57706385  0.40657671    -0.97300
Zr427      Zr  0.25964034  0.62989101  0.43468876     1.88900
O428        O  0.23603539  0.70560740  0.48888198    -0.74000
O429        O  0.31736436  0.74120337  0.36721557    -0.53200
O430        O  0.23099154  0.64957048  0.38643460    -0.97900
O431        O  0.21116795  0.59859955  0.46505630    -0.55100
O432        O  0.21717587  0.68026782  0.44449007    -0.74500
C433        C  0.21302786  0.70246383  0.46697609     0.97900
O434        O  0.28530216  0.73176124  0.53580125    -0.63300
O435        O  0.35058944  0.54669077  0.53147013    -0.58100
O436        O  0.32050024  0.67214376  0.04435172    -0.94800
O437        O  0.33646545  0.61206061  0.04634328    -0.93200
O438        O  0.42122834  0.64714643  0.52553405    -0.93600
O439        O  0.42444303  0.70943459  0.50368232    -0.92300
C440        C  0.33285131  0.64342562  0.05893027     1.16700
H441        H  0.39248100  0.57762131  0.47125337     0.32700
H442        H  0.36959420  0.72310692  0.46388997     0.43500
H443        H  0.25583453  0.62921536  0.50228689     0.37000
H444        H  0.30071338  0.63216108  0.38350552     0.33500
H445        H  0.47185767  0.68920454  0.45841351     0.25300
H446        H  0.33612791  0.74288642  0.35052114     0.31200
H447        H  0.24064780  0.67470094  0.38196465     0.37200
H448        H  0.41448115  0.62114216  0.52984969     0.31600
H449        H  0.32839085  0.53056849  0.04144000     0.30500
H450        H  0.25733257  0.54792806  0.49439691     0.32200
H451        H  0.19136745  0.59437276  0.45040444     0.31100
H452        H  0.40287233  0.71936715  0.51420296     0.35100
H453        H  0.30780858  0.74539134  0.54057227     0.27900
H454        H  0.40322594  0.56734579  0.36035581     0.32100
H455        H  0.21292314  0.58311416  0.39963266     0.35000
H456        H  0.37284785  0.53784782  0.52102475     0.27600
H457        H  0.26919119  0.75068317  0.52704835     0.40400
H458        H  0.39887796  0.73038764  0.37423167     0.30500
H459        H  0.45456653  0.68151845  0.42638709     0.38100
H460        H  0.20125510  0.61741333  0.47892889     0.30000
H461        H  0.29584733  0.72979365  0.35779457     0.30000
H462        H  0.36446829  0.54881853  0.36025686     0.30300
Zr463      Zr  0.36478675  0.59893331  0.16199048     2.17500
O464        O  0.38927568  0.55545169  0.12534662    -0.52100
O465        O  0.43344750  0.60378530  0.16907053    -0.75300
O466        O  0.35484449  0.61785522  0.10676758    -0.82100
O467        O  0.33319740  0.53066436  0.21765474    -0.83800
O468        O  0.33702220  0.67714731  0.10478357    -0.79400
O469        O  0.35647377  0.53275400  0.16881905    -0.91100
O470        O  0.43976495  0.61158557  0.21993008    -0.77000
O471        O  0.38779196  0.65898662  0.17059258    -0.86500
O472        O  0.37527598  0.59780953  0.21655665    -0.86200
O473        O  0.31287000  0.63785836  0.15224782    -0.73000
O474        O  0.30728934  0.58689208  0.19027591    -0.85100
Zr475      Zr  0.29798087  0.69121096  0.24248129     2.26400
Zr476      Zr  0.33816786  0.69823769  0.15798927     2.06300
Zr477      Zr  0.31965993  0.58762384  0.24424570     2.10000
Zr478      Zr  0.39862891  0.65862057  0.22538424     1.78800
O479        O  0.26174204  0.56075114  0.26150093    -0.93900
O480        O  0.44741724  0.69390591  0.19899448    -0.41700
O481        O  0.34328363  0.64723070  0.25122279    -0.78300
O482        O  0.35370181  0.70130790  0.21212851    -0.97000
O483        O  0.28354457  0.68906748  0.18854666    -0.90300
O484        O  0.27217750  0.63111349  0.23590827    -0.93200
C485        C  0.45333675  0.60598004  0.19367837     1.00600
C486        C  0.34460695  0.51498877  0.19288670     1.13500
C487        C  0.34337557  0.64660030  0.09186415     1.04300
O488        O  0.39646137  0.72919821  0.14949643    -0.95300
O489        O  0.30540590  0.74859409  0.17980696    -0.91100
O490        O  0.31344029  0.75536134  0.22954915    -0.84200
C491        C  0.31958686  0.76642227  0.20155831     1.10900
O492        O  0.23745393  0.58024194  0.14984964    -0.97300
Zr493      Zr  0.25833792  0.62965337  0.18236947     1.88900
O494        O  0.23235567  0.70058956  0.23931642    -0.74000
O495        O  0.31914067  0.74384689  0.11926139    -0.53200
O496        O  0.22799961  0.64630369  0.13440217    -0.97900
O497        O  0.21237624  0.59334967  0.21110832    -0.55100
O498        O  0.21680227  0.68044555  0.19221288    -0.74500
C499        C  0.21123036  0.70034131  0.21595522     0.97900
O500        O  0.28101974  0.72866689  0.28625175    -0.63300
O501        O  0.34089018  0.54230388  0.28203386    -0.58100
O502        O  0.31828852  0.67059317  0.29483071    -0.94800
O503        O  0.33381591  0.61034899  0.29585033    -0.93200
O504        O  0.42225858  0.64492894  0.27670522    -0.93600
O505        O  0.41737824  0.70478627  0.26197951    -0.92300
C506        C  0.33061778  0.64155514  0.30889024     1.16700
H507        H  0.38969211  0.57690969  0.22234511     0.32700
H508        H  0.36676764  0.72348466  0.21655451     0.43500
H509        H  0.25135372  0.62719045  0.24949493     0.37000
H510        H  0.30146359  0.63320595  0.13290537     0.33500
H511        H  0.46950073  0.68748033  0.21051715     0.25300
H512        H  0.33835869  0.74562503  0.10300148     0.31200
H513        H  0.20178653  0.64357090  0.13933012     0.37200
H514        H  0.41500928  0.61908281  0.28118593     0.31600
H515        H  0.32597393  0.51996983  0.27884684     0.30500
H516        H  0.26071165  0.53667893  0.25155756     0.32200
H517        H  0.21894452  0.56741843  0.20808593     0.31100
H518        H  0.43245524  0.72298861  0.25002616     0.35100
H519        H  0.30270359  0.74403361  0.29026207     0.27900
H520        H  0.40867026  0.56918434  0.11367650     0.32100
H521        H  0.25964450  0.57167357  0.13926145     0.35000
H522        H  0.36545834  0.53597811  0.27461376     0.27600
H523        H  0.26313123  0.74615876  0.27801885     0.40400
H524        H  0.39793826  0.73457946  0.12688412     0.30500
H525        H  0.45108843  0.68294889  0.17850138     0.38100
H526        H  0.18995103  0.59668713  0.19919251     0.30000
H527        H  0.29773923  0.73315127  0.10906569     0.30000
H528        H  0.37020918  0.55105120  0.10997711     0.30300
Zr529      Zr  0.16525049  0.81408131  0.43806100     2.17500
O530        O  0.20507255  0.79956721  0.39450444    -0.52100
O531        O  0.17787806  0.74821533  0.44166019    -0.75300
O532        O  0.22715012  0.82889224  0.44991961    -0.82100
O533        O  0.08797710  0.84642785  0.38568636    -0.83800
O534        O  0.23328842  0.83542141  0.00108656    -0.79400
O535        O  0.14791168  0.83296469  0.38512649    -0.91100
O536        O  0.16211704  0.73268634  0.49087443    -0.77000
O537        O  0.16382732  0.79538969  0.49140584    -0.86500
O538        O  0.10718130  0.78522173  0.44547866    -0.86200
O539        O  0.17443671  0.86880972  0.46770506    -0.73000
O540        O  0.12114986  0.85969069  0.42876321    -0.85100
Zr541      Zr  0.07459280  0.87132073  0.01889165     2.26400
Zr542      Zr  0.17262947  0.84550131  0.02071366     2.06300
Zr543      Zr  0.06327153  0.83251217  0.43867432     2.10000
Zr544      Zr  0.10643563  0.76623313  0.99718468     1.78800
O545        O  0.01809760  0.84650129  0.39940948    -0.93900
O546        O  0.11954304  0.73495750  0.04646424    -0.41700
O547        O  0.06847462  0.81873523  0.49051097    -0.78300
O548        O  0.11315658  0.81899224  0.02815089    -0.97000
O549        O  0.13388914  0.89652828  0.01027421    -0.90300
O550        O  0.07175024  0.88788963  0.46568020    -0.93200
C551        C  0.18193288  0.72846974  0.46636942     1.00600
C552        C  0.11903311  0.84408792  0.37158716     1.13500
C553        C  0.24523858  0.83741278  0.47381023     1.04300
O554        O  0.20883165  0.80939777  0.05657213    -0.95300
O555        O  0.15083597  0.84536482  0.07443638    -0.91100
O556        O  0.09188850  0.86212681  0.07348189    -0.84200
C557        C  0.12016784  0.85119986  0.08785195     1.10900
O558        O  0.18263954  0.93564168  0.42402730    -0.97300
Zr559      Zr  0.13097365  0.91399350  0.45586727     1.88900
O560        O  0.07857590  0.94132380  0.01664179    -0.74000
O561        O  0.20308266  0.90127665  0.03685865    -0.53200
O562        O  0.16964809  0.95938077  0.98227010    -0.97900
O563        O  0.11285589  0.93858059  0.40546197    -0.55100
O564        O  0.09038557  0.95427179  0.96637806    -0.74500
C565        C  0.08232141  0.96446486  0.99327115     0.97900
O566        O  0.02637720  0.88120811  0.05734791    -0.63300
O567        O  0.03805084  0.77136865  0.43062890    -0.58100
O568        O  0.00985003  0.87026933  0.01051776    -0.94800
O569        O  0.00524994  0.85300276  0.46071130    -0.93200
O570        O  0.07918938  0.71814994  0.46982917    -0.93600
O571        O  0.05563773  0.73709584  0.02537536    -0.92300
C572        C  0.98993320  0.86444910  0.48577014     1.16700
H573        H  0.10461362  0.76511025  0.43151886     0.32700
H574        H  0.10869830  0.80738501  0.04811645     0.43500
H575        H  0.05159656  0.90316849  0.46013584     0.37000
H576        H  0.19673657  0.88210452  0.46311153     0.33500
H577        H  0.12323558  0.70895605  0.04128629     0.25300
H578        H  0.22338603  0.89247517  0.04962490     0.31200
H579        H  0.18336439  0.95650377  0.48764062     0.37200
H580        H  0.09980027  0.70232927  0.46448151     0.31600
H581        H  0.01211522  0.77334180  0.43598911     0.30500
H582        H  0.01777668  0.82541114  0.38539157     0.32200
H583        H  0.08657258  0.93301906  0.40456026     0.31100
H584        H  0.03860617  0.75726201  0.02890761     0.35100
H585        H  0.02458586  0.85874318  0.07078169     0.27900
H586        H  0.22382333  0.78327441  0.40320247     0.32100
H587        H  0.17885063  0.96213464  0.42023990     0.35000
H588        H  0.03877595  0.76837233  0.40786489     0.27600
H589        H  0.03538642  0.90071766  0.07093244     0.40400
H590        H  0.20157143  0.78364506  0.05297162     0.30500
H591        H  0.14391014  0.74406375  0.05201122     0.38100
H592        H  0.12389402  0.92232395  0.39009318     0.30000
H593        H  0.21488612  0.91150164  0.01768455     0.30000
H594        H  0.21828669  0.82267942  0.38897325     0.30300
Zr595      Zr  0.16384876  0.81263659  0.18710970     2.17500
O596        O  0.20086444  0.79823418  0.14172571    -0.52100
O597        O  0.17702943  0.74694678  0.19088345    -0.75300
O598        O  0.22630375  0.82717682  0.19642276    -0.82100
O599        O  0.08583085  0.84471545  0.13534850    -0.83800
O600        O  0.23196940  0.84342440  0.24661460    -0.79400
O601        O  0.14540740  0.82985216  0.13463322    -0.91100
O602        O  0.16169242  0.73141835  0.24023687    -0.77000
O603        O  0.16447299  0.79522481  0.24059087    -0.86500
O604        O  0.10577739  0.78458405  0.19622907    -0.86200
O605        O  0.17396230  0.86815034  0.21542422    -0.73000
O606        O  0.12018037  0.85871161  0.17808251    -0.85100
Zr607      Zr  0.07339698  0.87362362  0.27029448     2.26400
Zr608      Zr  0.17202376  0.84981753  0.26948811     2.06300
Zr609      Zr  0.06225744  0.83237324  0.18881125     2.10000
Zr610      Zr  0.10680535  0.76769671  0.24972491     1.78800
O611        O  0.01496405  0.85049410  0.15301929    -0.93900
O612        O  0.12213731  0.73997355  0.29974600    -0.41700
O613        O  0.06291773  0.81638601  0.24290011    -0.78300
O614        O  0.11329265  0.82209297  0.27876672    -0.97000
O615        O  0.13179019  0.89961580  0.25890140    -0.90300
O616        O  0.07178925  0.88763211  0.21586728    -0.93200
C617        C  0.18088309  0.72697376  0.21549346     1.00600
C618        C  0.11671482  0.84133347  0.12120787     1.13500
C619        C  0.24490997  0.83761089  0.21940178     1.04300
O620        O  0.21095108  0.81348743  0.30289097    -0.95300
O621        O  0.15236622  0.84963755  0.32404658    -0.91100
O622        O  0.09284813  0.86458012  0.32434084    -0.84200
C623        C  0.12186667  0.85451773  0.33814970     1.10900
O624        O  0.17661561  0.93636376  0.16734594    -0.97300
Zr625      Zr  0.13047550  0.91348199  0.20425442     1.88900
O626        O  0.07905647  0.94295148  0.26866056    -0.74000
O627        O  0.20304325  0.90501075  0.28632611    -0.53200
O628        O  0.16629005  0.96173311  0.22760489    -0.97900
O629        O  0.11146767  0.94059402  0.15488754    -0.55100
O630        O  0.08463847  0.95429258  0.21769520    -0.74500
C631        C  0.08087809  0.96547480  0.24488632     0.97900
O632        O  0.02542403  0.88182265  0.30903087    -0.63300
O633        O  0.03586735  0.77219369  0.17889842    -0.58100
O634        O  0.00846264  0.87426134  0.26230246    -0.94800
O635        O  0.00592091  0.85332629  0.21338645    -0.93200
O636        O  0.07837278  0.71751592  0.22245673    -0.93600
O637        O  0.05727984  0.73786645  0.27913488    -0.92300
C638        C  0.99099642  0.86624166  0.23806254     1.16700
H639        H  0.10264104  0.76415082  0.18274311     0.32700
H640        H  0.10983111  0.81075487  0.29896508     0.43500
H641        H  0.05174792  0.90317354  0.21056460     0.37000
H642        H  0.19596572  0.88136156  0.20972090     0.33500
H643        H  0.12552439  0.71365201  0.29564783     0.25300
H644        H  0.18736882  0.91447836  0.30296482     0.31200
H645        H  0.19017236  0.95061569  0.23128083     0.37200
H646        H  0.09417827  0.69626203  0.22644271     0.31600
H647        H  0.00945888  0.77586667  0.17932721     0.30500
H648        H  0.01002969  0.82865115  0.14061479     0.32200
H649        H  0.08749262  0.95138075  0.15898790     0.31100
H650        H  0.03637307  0.75409615  0.27597570     0.35100
H651        H  0.02475074  0.85923617  0.32229941     0.27900
H652        H  0.21880450  0.78030872  0.14916824     0.32100
H653        H  0.18193518  0.91517523  0.15422312     0.35000
H654        H  0.04182445  0.76792395  0.15682625     0.27600
H655        H  0.03421434  0.90145050  0.32256335     0.40400
H656        H  0.21089622  0.78891377  0.29376791     0.30500
H657        H  0.14682072  0.74946373  0.30386454     0.38100
H658        H  0.10612367  0.91949051  0.14168650     0.30000
H659        H  0.22472082  0.89587599  0.29722312     0.30000
H660        H  0.21535356  0.82073354  0.13667735     0.30300
Zr661      Zr  0.79300929  0.78927420  0.43249035     2.17500
O662        O  0.77058296  0.75063747  0.39137407    -0.52100
O663        O  0.72786189  0.77364021  0.43937393    -0.75300
O664        O  0.81130922  0.72619849  0.44061595    -0.82100
O665        O  0.82798186  0.87173803  0.37926515    -0.83800
O666        O  0.82925591  0.71788193  0.99073705    -0.79400
O667        O  0.81193402  0.81121199  0.37988203    -0.91100
O668        O  0.71274981  0.79382254  0.48679144    -0.77000
O669        O  0.77796116  0.78799758  0.48639022    -0.86500
O670        O  0.76801794  0.84864279  0.44062110    -0.86200
O671        O  0.84900278  0.77959323  0.45986538    -0.73000
O672        O  0.83875489  0.83468112  0.42242693    -0.85100
Zr673      Zr  0.86259638  0.87817799  0.01232135     2.26400
Zr674      Zr  0.83459658  0.77818334  0.01391570     2.06300
Zr675      Zr  0.81625276  0.89349106  0.43253788     2.10000
Zr676      Zr  0.75679323  0.84697127  0.99361920     1.78800
O677        O  0.83938772  0.93938359  0.39455348    -0.93900
O678        O  0.72960073  0.82970774  0.04411796    -0.41700
O679        O  0.80542306  0.88457404  0.48464233    -0.78300
O680        O  0.81053625  0.83798994  0.02232777    -0.97000
O681        O  0.88510411  0.81896693  0.00157467    -0.90300
O682        O  0.87220292  0.88336583  0.45795495    -0.93200
C683        C  0.70694327  0.77311990  0.46355926     1.00600
C684        C  0.82424957  0.84065829  0.36579041     1.13500
C685        C  0.82233563  0.70686159  0.46378298     1.04300
O686        O  0.79608996  0.73828369  0.04692127    -0.95300
O687        O  0.83584453  0.79678621  0.06838397    -0.91100
O688        O  0.85282776  0.85707489  0.06700164    -0.84200
C689        C  0.84190497  0.82750391  0.08171577     1.10900
O690        O  0.91396406  0.77891281  0.40888869    -0.97300
Zr691      Zr  0.89428732  0.82388982  0.44610135     1.88900
O692        O  0.93110573  0.86998172  0.00826754    -0.74000
O693        O  0.88820185  0.74801243  0.03359897    -0.53200
O694        O  0.94284276  0.78609653  0.46618018    -0.97900
O695        O  0.91390073  0.84722078  0.39500612    -0.55100
O696        O  0.94107054  0.86623223  0.95732701    -0.74500
C697        C  0.95290514  0.86820262  0.98438728     0.97900
O698        O  0.88456490  0.92206511  0.05000610    -0.63300
O699        O  0.75837017  0.92106140  0.41997028    -0.58100
O700        O  0.85821375  0.94467997  0.00550168    -0.94800
O701        O  0.83394978  0.95143258  0.45671665    -0.93200
O702        O  0.70549204  0.87843900  0.46755953    -0.93600
O703        O  0.72867154  0.89466439  0.02371172    -0.92300
C704        C  0.84635276  0.96479443  0.48198018     1.16700
H705        H  0.74737225  0.85255017  0.42750120     0.32700
H706        H  0.79948487  0.84117992  0.04231255     0.43500
H707        H  0.88805604  0.90397003  0.45251238     0.37000
H708        H  0.86263554  0.75836001  0.45445311     0.33500
H709        H  0.70346323  0.82569320  0.04028044     0.25300
H710        H  0.87890044  0.73136037  0.05055657     0.31200
H711        H  0.93034038  0.76497479  0.47680329     0.37200
H712        H  0.68325371  0.87181758  0.47972987     0.31600
H713        H  0.76240770  0.94772199  0.42221189     0.30500
H714        H  0.81781220  0.95171040  0.38622549     0.32200
H715        H  0.94047338  0.85049316  0.39638637     0.31100
H716        H  0.74925498  0.90832865  0.03233249     0.35100
H717        H  0.86442207  0.92568229  0.06496242     0.27900
H718        H  0.75656387  0.76698588  0.37756148     0.32100
H719        H  0.89144437  0.76620969  0.40266116     0.33800
H720        H  0.75592287  0.91788402  0.39734568     0.27600
H721        H  0.90320547  0.90893223  0.06207713     0.40400
H722        H  0.77364514  0.73498932  0.03508367     0.30500
H723        H  0.73879776  0.80488781  0.04894215     0.38100
H724        H  0.90457198  0.87252540  0.39369267     0.30000
H725        H  0.89565531  0.73143613  0.01697457     0.30000
H726        H  0.79211814  0.74388018  0.37891575     0.30300
Zr727      Zr  0.79846234  0.78457521  0.18366676     2.17500
O728        O  0.78554889  0.74310331  0.14166304    -0.52100
O729        O  0.73240742  0.77310306  0.18598256    -0.75300
O730        O  0.81148605  0.72162844  0.20156418    -0.82100
O731        O  0.83468526  0.86222827  0.12759462    -0.83800
O732        O  0.82385929  0.72091172  0.25306169    -0.79400
O733        O  0.81939018  0.80141189  0.13003218    -0.91100
O734        O  0.71553102  0.79434236  0.23255844    -0.77000
O735        O  0.77906877  0.78894016  0.23639086    -0.86500
O736        O  0.77357530  0.84489104  0.18701370    -0.86200
O737        O  0.85144405  0.77679318  0.21511796    -0.73000
O738        O  0.84543834  0.82877212  0.17307951    -0.85100
Zr739      Zr  0.85994501  0.88163784  0.26177547     2.26400
Zr740      Zr  0.83151150  0.78329621  0.26814926     2.06300
Zr741      Zr  0.82253351  0.88867878  0.17905252     2.10000
Zr742      Zr  0.75540847  0.84863576  0.23973163     1.78800
O743        O  0.85536836  0.93080670  0.14322284    -0.93900
O744        O  0.72649755  0.83552308  0.29034592    -0.41700
O745        O  0.80783325  0.88466660  0.23075421    -0.78300
O746        O  0.80679141  0.84326112  0.27209179    -0.97000
O747        O  0.88316921  0.82190840  0.25575630    -0.90300
O748        O  0.87588321  0.88048473  0.20809721    -0.93200
C749        C  0.71067801  0.77305716  0.20957513     1.00600
C750        C  0.83151629  0.83046494  0.11510076     1.13500
C751        C  0.82017358  0.70514312  0.22716839     1.04300
O752        O  0.79230888  0.74689980  0.30334624    -0.95300
O753        O  0.83012261  0.80598320  0.32072191    -0.91100
O754        O  0.84695271  0.86615478  0.31732741    -0.84200
C755        C  0.83541113  0.83740635  0.33283679     1.10900
O756        O  0.92218048  0.76871118  0.17227798    -0.97300
Zr757      Zr  0.89828157  0.81953157  0.20146598     1.88900
O758        O  0.92886776  0.87403973  0.25991377    -0.74000
O759        O  0.88549013  0.75620075  0.29019226    -0.53200
O760        O  0.94289928  0.78470221  0.23040330    -0.97900
O761        O  0.92537882  0.83532050  0.15081919    -0.55100
O762        O  0.93964660  0.86727267  0.20953277    -0.74500
C763        C  0.95115350  0.87086492  0.23647942     0.97900
O764        O  0.88202542  0.92909996  0.29628321    -0.63300
O765        O  0.76839631  0.91689651  0.15812674    -0.58100
O766        O  0.85331142  0.94667166  0.25228190    -0.94800
O767        O  0.83350013  0.94885032  0.20274358    -0.93200
O768        O  0.70915054  0.87848396  0.20862412    -0.93600
O769        O  0.72440504  0.90028397  0.26215396    -0.92300
C770        C  0.84327810  0.96428482  0.22809534     1.16700
H771        H  0.75411371  0.84820844  0.17250659     0.32700
H772        H  0.79472186  0.84837879  0.29134651     0.43500
H773        H  0.89108245  0.90136745  0.20205184     0.37000
H774        H  0.86409732  0.75421817  0.21224767     0.33500
H775        H  0.70054750  0.83148966  0.28598731     0.25300
H776        H  0.87732552  0.74587540  0.31065262     0.31200
H777        H  0.96642552  0.79080490  0.22005483     0.37200
H778        H  0.69236564  0.85840703  0.20287605     0.31600
H779        H  0.77433556  0.94345864  0.15666700     0.30500
H780        H  0.83723043  0.93918924  0.12810801     0.32200
H781        H  0.92384828  0.86239853  0.14893658     0.31100
H782        H  0.74400557  0.91802298  0.26644345     0.35100
H783        H  0.86215975  0.93370171  0.31129271     0.27900
H784        H  0.76783856  0.72495790  0.15050713     0.32100
H785        H  0.90180588  0.76060505  0.15939670     0.35000
H786        H  0.76781877  0.90916365  0.13628368     0.27600
H787        H  0.90098785  0.91717064  0.30880421     0.40400
H788        H  0.76787110  0.74886778  0.29441572     0.30500
H789        H  0.73521069  0.81091200  0.29674218     0.38100
H790        H  0.90791894  0.82634617  0.13553914     0.30000
H791        H  0.89019548  0.73450037  0.27757714     0.30000
H792        H  0.80800927  0.72901482  0.13876180     0.30300
Zr793      Zr  0.57890809  0.58784556  0.41460029     2.17500
O794        O  0.53762343  0.56136539  0.37717239    -0.52100
O795        O  0.57477237  0.51965866  0.42627617    -0.75300
O796        O  0.59665098  0.59904742  0.35967877    -0.82100
O797        O  0.50974305  0.61042877  0.46877957    -0.83800
O798        O  0.65369765  0.62306941  0.35812197    -0.79400
O799        O  0.51398157  0.59647379  0.41813612    -0.91100
O800        O  0.62941557  0.50477227  0.44398032    -0.77000
O801        O  0.63966706  0.56861601  0.42267841    -0.86500
O802        O  0.58034257  0.57116309  0.46872796    -0.86200
O803        O  0.61523097  0.64354571  0.40522562    -0.73000
O804        O  0.56464332  0.64285418  0.44321696    -0.85100
Zr805      Zr  0.66563134  0.65838375  0.49570837     2.26400
Zr806      Zr  0.67620466  0.62242399  0.41134814     2.06300
Zr807      Zr  0.56595031  0.62490742  0.49670095     2.10000
Zr808      Zr  0.64165974  0.55355108  0.47715164     1.78800
O809        O  0.53437343  0.67831584  0.51547514    -0.93900
O810        O  0.69880821  0.52122724  0.47322395    -0.41700
O811        O  0.62637168  0.60656114  0.50407364    -0.78300
O812        O  0.67995629  0.60468416  0.46555173    -0.97000
O813        O  0.66373655  0.67499515  0.44185842    -0.90300
O814        O  0.60489833  0.67843730  0.48910074    -0.93200
C815        C  0.59744247  0.49590522  0.43693946     1.00600
C816        C  0.49534426  0.60279760  0.44245666     1.13500
C817        C  0.62391980  0.61401313  0.34501448     1.04300
O818        O  0.71040262  0.56727961  0.40170776    -0.95300
O819        O  0.72646142  0.65660371  0.43343802    -0.91100
O820        O  0.72977172  0.65610519  0.48446898    -0.84200
C821        C  0.74240913  0.64662902  0.45829438     1.10900
O822        O  0.55322288  0.71670757  0.40487706    -0.97300
Zr823      Zr  0.60433916  0.69641285  0.43559005     1.88900
O824        O  0.67316540  0.72547254  0.49098893    -0.74000
O825        O  0.71861982  0.64951271  0.37285414    -0.53200
O826        O  0.61596657  0.73070324  0.38715196    -0.97900
O827        O  0.57146578  0.74053467  0.46652638    -0.55100
O828        O  0.65757766  0.73794523  0.44180497    -0.74500
C829        C  0.67685238  0.74465399  0.46571519     0.97900
O830        O  0.69922051  0.67445139  0.04290761    -0.63300
O831        O  0.52589083  0.59240744  0.03179373    -0.58100
O832        O  0.64889791  0.63627085  0.04875117    -0.94800
O833        O  0.59043826  0.61551051  0.04891746    -0.93200
O834        O  0.60574425  0.51230218  0.51118914    -0.93600
O835        O  0.67246811  0.54032438  0.52558317    -0.92300
C836        C  0.62084804  0.62136267  0.06257039     1.16700
H837        H  0.56314976  0.55184099  0.47444927     0.32700
H838        H  0.70271118  0.59423543  0.47082827     0.43500
H839        H  0.59965143  0.69766724  0.50336192     0.37000
H840        H  0.61001650  0.65514215  0.38558109     0.33500
H841        H  0.69245287  0.49513562  0.47792315     0.25300
H842        H  0.72150805  0.63122457  0.35645171     0.31200
H843        H  0.64044898  0.72308969  0.38033747     0.37200
H844        H  0.59577611  0.52825026  0.52731723     0.31600
H845        H  0.50280592  0.60578166  0.03103306     0.30500
H846        H  0.50969521  0.67606221  0.50704039     0.32200
H847        H  0.55899503  0.75670849  0.45152799     0.31100
H848        H  0.68555100  0.56342953  0.53013596     0.35100
H849        H  0.71970613  0.65729518  0.04424758     0.27900
H850        H  0.55191478  0.54319430  0.36586538     0.32100
H851        H  0.53293323  0.69995816  0.41131636     0.35000
H852        H  0.51751755  0.56986135  0.52243372     0.27600
H853        H  0.71564417  0.69700341  0.53389697     0.40400
H854        H  0.70109473  0.55836786  0.38185834     0.30500
H855        H  0.70515793  0.52199625  0.45088568     0.38100
H856        H  0.59053202  0.75641908  0.47513123     0.30000
H857        H  0.70580244  0.67025438  0.36291673     0.30000
H858        H  0.53220127  0.58085675  0.36152743     0.30300
Zr859      Zr  0.66618889  0.65968020  0.24479981     2.17500
O860        O  0.70065847  0.68013862  0.28915137    -0.52100
O861        O  0.67734448  0.72592509  0.23731696    -0.75300
O862        O  0.72966673  0.64887125  0.23524511    -0.82100
O863        O  0.58897428  0.62069470  0.29852679    -0.83800
O864        O  0.72680154  0.64956137  0.18417362    -0.79400
O865        O  0.64821329  0.63892243  0.29772226    -0.91100
O866        O  0.66174319  0.73728350  0.18787738    -0.77000
O867        O  0.66584605  0.67325436  0.19027520    -0.86500
O868        O  0.60708816  0.68389244  0.23669814    -0.86200
O869        O  0.67645119  0.60262485  0.21803945    -0.73000
O870        O  0.62290180  0.61188869  0.25480666    -0.85100
Zr871      Zr  0.57637751  0.58947626  0.16616615     2.26400
Zr872      Zr  0.67475824  0.61717294  0.16314950     2.06300
Zr873      Zr  0.56428685  0.63404433  0.24585042     2.10000
Zr874      Zr  0.60730883  0.69699397  0.18246851     1.78800
O875        O  0.51990911  0.61171888  0.28494764    -0.93900
O876        O  0.62089783  0.72516987  0.13141321    -0.41700
O877        O  0.57127678  0.64455417  0.19348429    -0.78300
O878        O  0.61568490  0.64215264  0.15459260    -0.97000
O879        O  0.63485652  0.56628048  0.17646942    -0.90300
O880        O  0.57386314  0.57752516  0.22081209    -0.93200
C881        C  0.68094784  0.74445106  0.21173118     1.00600
C882        C  0.61991399  0.62516007  0.31188646     1.13500
C883        C  0.74227968  0.63916694  0.20914029     1.04300
O884        O  0.72029932  0.63224673  0.12321008    -0.95300
O885        O  0.65418648  0.61861025  0.10927709    -0.91100
O886        O  0.59566322  0.59834055  0.11090541    -0.84200
C887        C  0.62406358  0.61090661  0.09602323     1.10900
O888        O  0.68027886  0.53011787  0.26479405    -0.97300
Zr889      Zr  0.63355068  0.55547220  0.23153490     1.88900
O890        O  0.57887999  0.51955990  0.17448837    -0.74000
O891        O  0.70222383  0.55741861  0.15785135    -0.53200
O892        O  0.66645347  0.50762412  0.20518802    -0.97900
O893        O  0.61832610  0.53473685  0.28442586    -0.55100
O894        O  0.58715186  0.51192999  0.22550403    -0.74500
C895        C  0.58044472  0.49879003  0.19949472     0.97900
O896        O  0.53271976  0.56444236  0.12975970    -0.63300
O897        O  0.53654812  0.69209595  0.25886540    -0.58100
O898        O  0.51179167  0.59736147  0.17041310    -0.94800
O899        O  0.50767229  0.61698921  0.21973149    -0.93200
O900        O  0.57753810  0.74691398  0.20897388    -0.93600
O901        O  0.55633881  0.72126859  0.15380109    -0.92300
C902        C  0.49343717  0.60631261  0.19416274     1.16700
H903        H  0.60310462  0.70488237  0.24953011     0.32700
H904        H  0.61129782  0.65351365  0.13476417     0.43500
H905        H  0.55314776  0.56215203  0.22670564     0.37000
H906        H  0.69842142  0.59079109  0.22376500     0.33500
H907        H  0.62119738  0.75196205  0.13468444     0.25300
H908        H  0.72165052  0.56129813  0.14202534     0.31200
H909        H  0.65701500  0.48426628  0.21451464     0.37200
H910        H  0.59600777  0.76690249  0.20925941     0.31600
H911        H  0.51024294  0.68787142  0.25627018     0.30500
H912        H  0.51109772  0.63376007  0.29555557     0.32200
H913        H  0.61436624  0.50786750  0.28328029     0.31100
H914        H  0.54497075  0.69942773  0.14467974     0.35100
H915        H  0.52936593  0.58337324  0.11322666     0.27900
H916        H  0.71814617  0.69879541  0.28066636     0.32100
H917        H  0.70282394  0.53113554  0.25215305     0.35000
H918        H  0.53956222  0.69400453  0.28155790     0.27600
H919        H  0.54541132  0.54431674  0.11937062     0.40400
H920        H  0.71872730  0.65913712  0.11983773     0.30500
H921        H  0.64653061  0.71927283  0.12706932     0.38100
H922        H  0.59386007  0.54446559  0.28836243     0.30000
H923        H  0.71495973  0.55282563  0.17753057     0.30000
H924        H  0.71589021  0.65915135  0.29527940     0.30300
Zr925      Zr  0.12525394  0.18480817  0.44048236     2.17500
O926        O  0.14331639  0.22179529  0.39465545    -0.52100
O927        O  0.18983107  0.20337824  0.44720432    -0.75300
O928        O  0.10469833  0.24694983  0.44870526    -0.82100
O929        O  0.09042205  0.10379748  0.39075577    -0.83800
O930        O  0.10249058  0.24656259  0.00028951    -0.79400
O931        O  0.10514063  0.16471125  0.38877903    -0.91100
O932        O  0.20689717  0.18015069  0.49379546    -0.77000
O933        O  0.13894309  0.18400747  0.99448517    -0.86500
O934        O  0.15241526  0.12612298  0.44806399    -0.86200
O935        O  0.06980240  0.18945718  0.47122163    -0.73000
O936        O  0.07990781  0.13846812  0.43444993    -0.85100
Zr937      Zr  0.06531209  0.08699400  0.02781071     2.26400
Zr938      Zr  0.08462229  0.18819232  0.02560611     2.06300
Zr939      Zr  0.10539957  0.08036474  0.44330126     2.10000
Zr940      Zr  0.16764929  0.12662349  0.00188887     1.78800
O941        O  0.08797950  0.03546110  0.40526213    -0.93900
O942        O  0.19491741  0.14176786  0.05114460    -0.41700
O943        O  0.12093850  0.08021188  0.99666737    -0.78300
O944        O  0.11472771  0.13070117  0.03346965    -0.97000
O945        O  0.03729647  0.14402854  0.01622427    -0.90300
O946        O  0.05113029  0.08568975  0.47362918    -0.93200
C947        C  0.21133929  0.20250816  0.47054064     1.00600
C948        C  0.09288212  0.13524326  0.37619970     1.13500
C949        C  0.08836687  0.25875915  0.97527091     1.04300
O950        O  0.10751696  0.23468622  0.06001384    -0.95300
O951        O  0.09090951  0.16748750  0.07995556    -0.91100
O952        O  0.07811275  0.10624032  0.08151523    -0.84200
C953        C  0.08808537  0.13622608  0.09455073     1.10900
O954        O  0.99708528  0.18626380  0.42578080    -0.97300
Zr955      Zr  0.02512072  0.14389511  0.46244694     1.88900
O956        O  0.99738745  0.09496875  0.03204663    -0.74000
O957        O  0.02625212  0.21228273  0.04162711    -0.53200
O958        O  0.97963509  0.18333058  0.98288489    -0.97900
O959        O  0.99965169  0.12194664  0.41445801    -0.55100
O960        O  0.98629761  0.09252859  0.98201460    -0.74500
C961        C  0.97482984  0.09501234  0.00946126     0.97900
O962        O  0.05292463  0.03785179  0.06623486    -0.63300
O963        O  0.16470024  0.05497489  0.43222449    -0.58100
O964        O  0.07045310  0.02134663  0.01908424    -0.94800
O965        O  0.08899756  0.02233549  0.46991294    -0.93200
O966        O  0.21885802  0.10130965  0.47033887    -0.93600
O967        O  0.19509040  0.07511897  0.02930700    -0.92300
C968        C  0.08087358  0.00508183  0.99466254     1.16700
H969        H  0.17237378  0.12352542  0.43358937     0.32700
H970        H  0.12764632  0.12737548  0.05237297     0.43500
H971        H  0.03628640  0.06449823  0.46908095     0.37000
H972        H  0.05505855  0.20991983  0.46572629     0.33500
H973        H  0.22107046  0.14508966  0.04643670     0.25300
H974        H  0.01394221  0.19198777  0.05353955     0.31200
H975        H  0.99233698  0.20729156  0.98457331     0.37200
H976        H  0.23529189  0.12266833  0.46588543     0.31600
H977        H  0.16237333  0.02871477  0.43864475     0.30500
H978        H  0.10555026  0.01541089  0.40760087     0.32200
H979        H  0.99656531  0.09520742  0.41794344     0.31100
H980        H  0.18539869  0.05306058  0.01923915     0.35100
H981        H  0.07460688  0.03650608  0.07941717     0.27900
H982        H  0.15969386  0.24113281  0.40229757     0.32100
H983        H  0.01771120  0.19862163  0.41460074     0.35000
H984        H  0.16650554  0.05491038  0.40938432     0.27600
H985        H  0.03362699  0.04727034  0.07987452     0.40400
H986        H  0.13386097  0.23020113  0.06106779     0.30500
H987        H  0.18633577  0.16677219  0.05550216     0.38100
H988        H  0.01949689  0.12446558  0.39876000     0.30000
H989        H  0.03221014  0.23036135  0.05755843     0.30000
H990        H  0.12126387  0.23511353  0.38844008     0.30300
Zr991      Zr  0.13076364  0.18427792  0.19200315     2.17500
O992        O  0.14977423  0.22082078  0.14617271    -0.52100
O993        O  0.19540674  0.20005580  0.19903452    -0.75300
O994        O  0.11267256  0.24729848  0.19923363    -0.82100
O995        O  0.09795646  0.10283425  0.14209221    -0.83800
O996        O  0.10693309  0.24733488  0.25051133    -0.79400
O997        O  0.11265636  0.16372178  0.13964174    -0.91100
O998        O  0.20849750  0.18025362  0.24757392    -0.77000
O999        O  0.14136335  0.18450890  0.24663965    -0.86500
O1000       O  0.15843306  0.12645297  0.20285417    -0.86200
O1001       O  0.07255855  0.18928229  0.21879035    -0.73000
O1002       O  0.08759627  0.13711314  0.18392151    -0.85100
Zr1003     Zr  0.06273975  0.08893713  0.27536401     2.26400
Zr1004     Zr  0.08406911  0.18951038  0.27371587     2.06300
Zr1005     Zr  0.11289549  0.07980739  0.19485791     2.10000
Zr1006     Zr  0.16852395  0.12689276  0.25710414     1.78800
O1007       O  0.10094809  0.03241679  0.15751598    -0.93900
O1008       O  0.19244960  0.14544727  0.30677810    -0.41700
O1009       O  0.12187278  0.08061101  0.24959099    -0.78300
O1010       O  0.11233520  0.13164521  0.28408906    -0.97000
O1011       O  0.03712176  0.14637254  0.26119662    -0.90300
O1012       O  0.05542972  0.08541229  0.22030327    -0.93200
C1013       C  0.21495846  0.20081350  0.22346147     1.00600
C1014       C  0.10062277  0.13404024  0.12715473     1.13500
C1015       C  0.09791919  0.25971645  0.22374074     1.04300
O1016       O  0.09606177  0.23643218  0.31149626    -0.95300
O1017       O  0.08600046  0.16888907  0.32858278    -0.91100
O1018       O  0.07128246  0.10807022  0.32983577    -0.84200
C1019       C  0.08130500  0.13780663  0.34324119     1.10900
O1020       O  0.01387007  0.18726101  0.16498302    -0.97300
Zr1021     Zr  0.02987971  0.14332296  0.20595610     1.88900
O1022       O  0.99447833  0.09717249  0.27064507    -0.74000
O1023       O  0.02223292  0.20991302  0.28147594    -0.53200
O1024       O  0.97907703  0.17986465  0.22337111    -0.97900
O1025       O  0.00847462  0.11564272  0.15860619    -0.55100
O1026       O  0.98959690  0.09512553  0.21967066    -0.74500
C1027       C  0.97489279  0.09714397  0.24590829     0.97900
O1028       O  0.04084012  0.04230976  0.31311487    -0.63300
O1029       O  0.17279445  0.05650229  0.18277194    -0.58100
O1030       O  0.06980510  0.02310357  0.26934713    -0.94800
O1031       O  0.09566249  0.02198830  0.22137213    -0.93200
O1032       O  0.21713232  0.09291968  0.23288177    -0.93600
O1033       O  0.19369296  0.07973838  0.29111974    -0.92300
C1034       C  0.08204795  0.00600532  0.24601478     1.16700
H1035       H  0.18021460  0.12400039  0.19044818     0.32700
H1036       H  0.12363527  0.12798703  0.30373169     0.43500
H1037       H  0.04147850  0.06392946  0.21497308     0.37000
H1038       H  0.05862336  0.20984261  0.21199174     0.33500
H1039       H  0.21886006  0.14891297  0.30319170     0.25300
H1040       H  0.02372713  0.22886270  0.29741706     0.31200
H1041       H  0.98497490  0.20545997  0.21661216     0.37200
H1042       H  0.23956472  0.10564855  0.23916006     0.31600
H1043       H  0.16989089  0.02949608  0.18435805     0.30500
H1044       H  0.07471636  0.02692955  0.15986621     0.32200
H1045       H  0.01450167  0.08932923  0.16095156     0.31100
H1046       H  0.17313963  0.07140242  0.30464415     0.35100
H1047       H  0.05998261  0.03968303  0.32882169     0.27900
H1048       H  0.16713795  0.23927928  0.15371101     0.32100
H1049       H  0.03736688  0.19603841  0.15598874     0.35000
H1050       H  0.17636786  0.06196893  0.16028632     0.27600
H1051       H  0.02043773  0.05378518  0.32415588     0.40400
H1052       H  0.12219627  0.23444194  0.31581956     0.30500
H1053       H  0.18328185  0.17050673  0.30956122     0.38100
H1054       H  0.02487928  0.12494344  0.14181759     0.30000
H1055       H  0.01632261  0.22352231  0.26213745     0.30000
H1056       H  0.12827526  0.23523640  0.14023691     0.30300
Zr1057     Zr  0.25641820  0.31467741  0.50200577     2.17500
O1058       O  0.21644154  0.29727756  0.04605487    -0.52100
O1059       O  0.24432008  0.24855709  0.49701221    -0.75300
O1060       O  0.19429022  0.32507797  0.48900243    -0.82100
O1061       O  0.33444467  0.35167894  0.05216422    -0.83800
O1062       O  0.19517846  0.31949306  0.43728356    -0.79400
O1063       O  0.27469220  0.33548993  0.05325877    -0.91100
O1064       O  0.26141306  0.23740332  0.44782464    -0.77000
O1065       O  0.25865690  0.29895586  0.44875726    -0.86500
O1066       O  0.31592377  0.29121383  0.49421826    -0.86200
O1067       O  0.24301757  0.36942724  0.47087274    -0.73000
O1068       O  0.29749911  0.36388580  0.50892505    -0.85100
Zr1069     Zr  0.34666463  0.38364865  0.41733753     2.26400
Zr1070     Zr  0.24849638  0.35266269  0.41759530     2.06300
Zr1071     Zr  0.35680808  0.34237337  0.50034420     2.10000
Zr1072     Zr  0.31702973  0.27557047  0.44098097     1.78800
O1073       O  0.40045535  0.36230349  0.03575439    -0.93900
O1074       O  0.30744909  0.24768743  0.39101303    -0.41700
O1075       O  0.35863982  0.32708381  0.44705227    -0.78300
O1076       O  0.30851341  0.32970856  0.40983163    -0.97000
O1077       O  0.28678837  0.40483952  0.42637947    -0.90300
O1078       O  0.34528036  0.39709893  0.47108543    -0.93200
C1079       C  0.24115844  0.23057411  0.47192824     1.00600
C1080       C  0.30366844  0.34791653  0.06636306     1.13500
C1081       C  0.17851313  0.32539524  0.46279742     1.04300
O1082       O  0.20778226  0.33171165  0.37768098    -0.95300
O1083       O  0.26821868  0.35343191  0.36367706    -0.91100
O1084       O  0.32662070  0.37401210  0.36331731    -0.84200
C1085       C  0.29830132  0.36138191  0.34964914     1.10900
O1086       O  0.23335502  0.43878349  0.51099145    -0.97300
Zr1087     Zr  0.28464086  0.41765415  0.48044433     1.88900
O1088       O  0.34610228  0.45322292  0.42236876    -0.74000
O1089       O  0.21464637  0.40869995  0.40944151    -0.53200
O1090       O  0.25151495  0.46497329  0.45248508    -0.97900
O1091       O  0.29703262  0.43974834  0.53204477    -0.55100
O1092       O  0.32863816  0.46347338  0.47166510    -0.74500
C1093       C  0.34075711  0.47481200  0.44554478     0.97900
O1094       O  0.39117048  0.40377316  0.37772073    -0.63300
O1095       O  0.38566035  0.28623135  0.51838033    -0.58100
O1096       O  0.41172406  0.37595151  0.42401166    -0.94800
O1097       O  0.41406324  0.35889207  0.47480672    -0.93200
O1098       O  0.34204448  0.22411264  0.47024382    -0.93600
O1099       O  0.37068039  0.25312120  0.41445505    -0.92300
C1100       C  0.42921775  0.36832620  0.44865623     1.16700
H1101       H  0.32014413  0.27081957  0.50836038     0.32700
H1102       H  0.31303609  0.31868031  0.39022610     0.43500
H1103       H  0.36480208  0.41377043  0.47603940     0.37000
H1104       H  0.21989632  0.38049346  0.47480459     0.33500
H1105       H  0.30645340  0.22100069  0.39567083     0.25300
H1106       H  0.22198243  0.41758788  0.38827738     0.31200
H1107       H  0.25537227  0.48749886  0.46437883     0.37200
H1108       H  0.33329777  0.20208261  0.45944567     0.31600
H1109       H  0.40890367  0.28499228  0.01242115     0.30500
H1110       H  0.40711373  0.34090053  0.04895941     0.32200
H1111       H  0.29866310  0.46676252  0.52947481     0.31100
H1112       H  0.39073385  0.26942205  0.42087857     0.35100
H1113       H  0.39483231  0.38263867  0.36411793     0.27900
H1114       H  0.19898378  0.27888676  0.03836877     0.32100
H1115       H  0.22536207  0.41713358  0.52376922     0.35000
H1116       H  0.38625452  0.28804663  0.54127874     0.27600
H1117       H  0.37886311  0.42232776  0.36466593     0.40400
H1118       H  0.21229878  0.30510099  0.37624966     0.30500
H1119       H  0.28230861  0.25397571  0.38559660     0.38100
H1120       H  0.32215051  0.43217521  0.53615941     0.30000
H1121       H  0.18926114  0.40023969  0.40737211     0.30000
H1122       H  0.20458806  0.31995005  0.55169970     0.30300
Zr1123     Zr  0.34947882  0.38173298  0.16767328     2.17500
O1124       O  0.39387519  0.40042162  0.12724572    -0.52100
O1125       O  0.34728420  0.45205745  0.17131129    -0.75300
O1126       O  0.32964932  0.37026701  0.11327973    -0.82100
O1127       O  0.41552651  0.35557809  0.22547603    -0.83800
O1128       O  0.27079153  0.35118219  0.11304422    -0.79400
O1129       O  0.41489975  0.37562022  0.17536422    -0.91100
O1130       O  0.32901908  0.46303248  0.22020192    -0.77000
O1131       O  0.28914573  0.40242322  0.17517220    -0.86500
O1132       O  0.34657987  0.39730936  0.22096841    -0.86200
O1133       O  0.31229981  0.32710687  0.16039191    -0.73000
O1134       O  0.35444236  0.32890961  0.19997382    -0.85100
Zr1135     Zr  0.25606443  0.31515448  0.25166234     2.26400
Zr1136     Zr  0.25195461  0.34919919  0.16668139     2.06300
Zr1137     Zr  0.35709375  0.34313376  0.25118538     2.10000
Zr1138     Zr  0.28536755  0.41719631  0.22889188     1.78800
O1139       O  0.38552398  0.28802013  0.27195207    -0.93900
O1140       O  0.25058696  0.46407139  0.20175760    -0.41700
O1141       O  0.29742342  0.36427593  0.25855087    -0.78300
O1142       O  0.24445036  0.36859299  0.21902401    -0.97000
O1143       O  0.26141599  0.29681951  0.19931662    -0.90300
O1144       O  0.31619907  0.29170516  0.24647864    -0.93200
C1145       C  0.34110208  0.47419114  0.19407780     1.00600
C1146       C  0.43171179  0.36521279  0.19974129     1.13500
C1147       C  0.30113255  0.35817464  0.09934494     1.04300
O1148       O  0.22066599  0.40274989  0.14649748    -0.95300
O1149       O  0.19199368  0.33319966  0.18480646    -0.91100
O1150       O  0.19346218  0.32468746  0.23706465    -0.84200
C1151       C  0.17664658  0.33005692  0.21155042     1.10900
O1152       O  0.37035949  0.25265777  0.16189012    -0.97300
Zr1153     Zr  0.32075524  0.27486519  0.19374909     1.88900
O1154       O  0.24600917  0.24855839  0.24921841    -0.74000
O1155       O  0.21661104  0.30635332  0.13637931    -0.53200
O1156       O  0.31058599  0.23748957  0.14848625    -0.97900
O1157       O  0.35267682  0.23086189  0.22657105    -0.55100
O1158       O  0.26588186  0.23514947  0.20127299    -0.74500
C1159       C  0.24456709  0.22911088  0.22488193     0.97900
O1160       O  0.21649396  0.29882863  0.29589463    -0.63300
O1161       O  0.39755458  0.37353502  0.28710762    -0.58100
O1162       O  0.27352219  0.33705811  0.30357515    -0.94800
O1163       O  0.33259039  0.35598781  0.30295319    -0.93200
O1164       O  0.29904805  0.44169390  0.27937687    -0.93600
O1165       O  0.23496642  0.43635246  0.26146029    -0.92300
C1166       C  0.30164025  0.35105079  0.31677903     1.16700
H1167       H  0.36595848  0.41411677  0.22596307     0.32700
H1168       H  0.22135729  0.38001912  0.22226940     0.43500
H1169       H  0.31993700  0.27198747  0.26148188     0.37000
H1170       H  0.31687654  0.31567907  0.14090966     0.33500
H1171       H  0.25583273  0.48697099  0.21277739     0.25300
H1172       H  0.20554826  0.32138753  0.11973750     0.31200
H1173       H  0.29259432  0.25101321  0.13608111     0.37200
H1174       H  0.32344371  0.43240007  0.28418034     0.31600
H1175       H  0.42034664  0.35956503  0.28664573     0.30500
H1176       H  0.38557775  0.29127986  0.29467485     0.32200
H1177       H  0.37868820  0.23690971  0.22318778     0.31100
H1178       H  0.22636200  0.41359135  0.27249989     0.35100
H1179       H  0.20137798  0.32068934  0.29911257     0.27900
H1180       H  0.38146732  0.41820405  0.11346795     0.32100
H1181       H  0.39022285  0.27066596  0.16462895     0.35000
H1182       H  0.40388088  0.39752397  0.27702437     0.27600
H1183       H  0.19940939  0.28000658  0.28836450     0.40400
H1184       H  0.20519562  0.39320006  0.12993519     0.30500
H1185       H  0.26266738  0.46787244  0.18126459     0.38100
H1186       H  0.34908378  0.20701939  0.21655797     0.30000
H1187       H  0.23453675  0.29103772  0.12564912     0.30000
H1188       H  0.39787654  0.37862404  0.11441036     0.30300
Zr1189     Zr  0.95675143  0.40128608  0.00146928     2.17500
O1190       O  0.00500582  0.39191362  0.03877553    -0.52100
O1191       O  0.93550783  0.33836842  0.00420301    -0.75300
O1192       O  0.93755606  0.40266493  0.05547378    -0.82100
O1193       O  0.03050624  0.40986582  0.43516263    -0.83800
O1194       O  0.88265272  0.42960802  0.05627572    -0.79400
O1195       O  0.01984785  0.38842221  0.48461320    -0.91100
O1196       O  0.93258638  0.32272398  0.45577348    -0.77000
O1197       O  0.89894098  0.39048064  0.49291262    -0.86500
O1198       O  0.95657085  0.39093935  0.44733260    -0.86200
O1199       O  0.92869656  0.45862348  0.01190151    -0.73000
O1200       O  0.98480315  0.45679563  0.46942109    -0.85100
Zr1201     Zr  0.88447991  0.48202588  0.41967007     2.26400
Zr1202     Zr  0.86532743  0.44494475  0.00376770     2.06300
Zr1203     Zr  0.97748850  0.44174215  0.41616004     2.10000
Zr1204     Zr  0.89478832  0.37414354  0.43984512     1.78800
O1205       O  0.02367319  0.48848605  0.40390358    -0.93900
O1206       O  0.85009876  0.33502502  0.46736927    -0.41700
O1207       O  0.91516262  0.42632500  0.40853234    -0.78300
O1208       O  0.86113638  0.42909504  0.44895440    -0.97000
O1209       O  0.89130491  0.49697715  0.47246391    -0.90300
O1210       O  0.94694937  0.49724343  0.42633930    -0.93200
C1211       C  0.95138602  0.32217832  0.48046927     1.00600
C1212       C  0.03961564  0.39259979  0.46014059     1.13500
C1213       C  0.90953599  0.41453979  0.06962177     1.04300
O1214       O  0.81450850  0.40165166  0.00278700    -0.95300
O1215       O  0.83347802  0.50035796  0.48946297    -0.91100
O1216       O  0.82420789  0.49348372  0.43890288    -0.84200
C1217       C  0.81867873  0.51028925  0.46401405     1.10900
O1218       O  0.00699593  0.50747709  0.00892850    -0.97300
Zr1219     Zr  0.95315752  0.51122882  0.47971307     1.88900
O1220       O  0.88488656  0.54875123  0.42335427    -0.74000
O1221       O  0.82209994  0.46642023  0.04239955    -0.53200
O1222       O  0.94937694  0.54642293  0.02184851    -0.97900
O1223       O  0.99548953  0.55140748  0.45056195    -0.55100
O1224       O  0.91306607  0.56024026  0.46838673    -0.74500
C1225       C  0.89190052  0.56904949  0.44644069     0.97900
O1226       O  0.84229241  0.48675180  0.37687656    -0.63300
O1227       O  0.00271588  0.40300820  0.37623586    -0.58100
O1228       O  0.90237082  0.48349861  0.36534452    -0.94800
O1229       O  0.95735311  0.45648300  0.36371558    -0.93200
O1230       O  0.91085203  0.34065604  0.39370776    -0.93600
O1231       O  0.84451360  0.36374859  0.40518427    -0.92300
C1232       C  0.92970260  0.47093532  0.35064453     1.16700
H1233       H  0.97248665  0.37143237  0.44167354     0.32700
H1234       H  0.83605216  0.42482028  0.44412460     0.43500
H1235       H  0.95470202  0.51712967  0.41239743     0.37000
H1236       H  0.93329850  0.46679640  0.03257855     0.33500
H1237       H  0.84548999  0.31451047  0.45335387     0.25300
H1238       H  0.81542259  0.44479070  0.05582675     0.31200
H1239       H  0.96418809  0.56835432  0.01549137     0.37200
H1240       H  0.93661913  0.34733107  0.38948724     0.31600
H1241       H  0.02834615  0.41105719  0.37353997     0.30500
H1242       H  0.04447931  0.47475319  0.39563484     0.32200
H1243       H  0.01982796  0.54385494  0.45728594     0.31100
H1244       H  0.84444024  0.38587414  0.39134034     0.35100
H1245       H  0.82109778  0.47116568  0.38308235     0.27900
H1246       H  0.99667169  0.37226901  0.05371069     0.32100
H1247       H  0.00252551  0.48849812  0.02550528     0.35000
H1248       H  0.00378847  0.37813691  0.38592765     0.27600
H1249       H  0.83339327  0.51223368  0.37703133     0.40400
H1250       H  0.81848463  0.38457400  0.02056011     0.30500
H1251       H  0.86332353  0.32373564  0.48485250     0.38100
H1252       H  0.99215198  0.57585701  0.45950914     0.30000
H1253       H  0.83614257  0.48279026  0.05579968     0.30000
H1254       H  0.00614667  0.41447902  0.05092960     0.30300
Zr1255     Zr  0.87623300  0.47524812  0.24939437     2.17500
O1256       O  0.82837080  0.48167803  0.28842994    -0.52100
O1257       O  0.87767371  0.54136241  0.24408891    -0.75300
O1258       O  0.89892323  0.47872961  0.30270784    -0.82100
O1259       O  0.81660272  0.48460689  0.17929301    -0.83800
O1260       O  0.95603698  0.45659679  0.30295684    -0.79400
O1261       O  0.81493486  0.48075961  0.23092654    -0.91100
O1262       O  0.91220104  0.55879792  0.20199770    -0.77000
O1263       O  0.93811358  0.49110602  0.23919537    -0.86500
O1264       O  0.88279021  0.48990620  0.19509352    -0.86200
O1265       O  0.90704817  0.41986438  0.26297420    -0.73000
O1266       O  0.85333564  0.42217710  0.22316801    -0.85100
Zr1267     Zr  0.95400378  0.39780120  0.17126892     2.26400
Zr1268     Zr  0.96937513  0.43624930  0.25149064     2.06300
Zr1269     Zr  0.85991561  0.43727885  0.16898083     2.10000
Zr1270     Zr  0.94405189  0.50481141  0.18509140     1.78800
O1271       O  0.81157459  0.39119613  0.17204229    -0.93900
O1272       O  0.98965812  0.54367322  0.20860543    -0.41700
O1273       O  0.92235120  0.45253375  0.15780037    -0.78300
O1274       O  0.97739277  0.45075715  0.19717815    -0.97000
O1275       O  0.94793589  0.38455777  0.22511074    -0.90300
O1276       O  0.89158749  0.38223704  0.18046570    -0.93200
C1277       C  0.88938212  0.56527590  0.22387409     1.00600
C1278       C  0.80729237  0.49734977  0.20544750     1.13500
C1279       C  0.92831881  0.46978231  0.31653878     1.04300
O1280       O  0.01454761  0.48458562  0.25793066    -0.95300
O1281       O  0.02308505  0.40442039  0.23603431    -0.91100
O1282       O  0.01531234  0.38651085  0.18667250    -0.84200
C1283       C  0.03398677  0.38922307  0.21123056     1.10900
O1284       O  0.82965354  0.35606510  0.26299401    -0.97300
Zr1285     Zr  0.88655570  0.36757956  0.23482023     1.88900
O1286       O  0.94653212  0.33208446  0.18023030    -0.74000
O1287       O  0.99458629  0.39493771  0.29064880    -0.53200
O1288       O  0.89091628  0.33970386  0.28653359    -0.97900
O1289       O  0.85279385  0.31946798  0.20899775    -0.55100
O1290       O  0.93466221  0.32309262  0.23044955    -0.74500
C1291       C  0.95426816  0.31728001  0.20638958     0.97900
O1292       O  0.99316183  0.38357583  0.12728637    -0.63300
O1293       O  0.82350481  0.45201167  0.12373515    -0.58100
O1294       O  0.93634038  0.40049512  0.11755018    -0.94800
O1295       O  0.88108734  0.42678877  0.11681231    -0.93200
O1296       O  0.92551318  0.53645974  0.13764675    -0.93600
O1297       O  0.99335264  0.51511150  0.14748813    -0.92300
C1298       C  0.90880758  0.41321429  0.10344285     1.16700
H1299       H  0.87068310  0.51179073  0.18836157     0.32700
H1300       H  0.00261934  0.45536146  0.19198625     0.43500
H1301       H  0.88387664  0.36283271  0.16715581     0.37000
H1302       H  0.90362786  0.41361060  0.28466297     0.33500
H1303       H  0.01310033  0.53231737  0.20369133     0.25300
H1304       H  0.01028012  0.41050219  0.30343462     0.31200
H1305       H  0.91716217  0.33942607  0.29073024     0.37200
H1306       H  0.93465747  0.56193399  0.13951720     0.31600
H1307       H  0.79794246  0.44877686  0.13061899     0.30500
H1308       H  0.79272898  0.40203492  0.18537869     0.32200
H1309       H  0.87001004  0.30860526  0.19417662     0.31100
H1310       H  0.99349681  0.49262938  0.13517506     0.35100
H1311       H  0.01339876  0.40162230  0.12748982     0.27900
H1312       H  0.83441319  0.50430461  0.29952181     0.32100
H1313       H  0.81056593  0.36088941  0.24761879     0.35000
H1314       H  0.82679107  0.47875049  0.11983322     0.27600
H1315       H  0.00406329  0.35954888  0.13252631     0.40400
H1316       H  0.03373683  0.47279081  0.27014051     0.30500
H1317       H  0.98974340  0.56681509  0.19602316     0.38100
H1318       H  0.83468469  0.33193987  0.19601570     0.30000
H1319       H  0.97396843  0.38743390  0.30449001     0.30000
H1320       H  0.83157484  0.46134427  0.30376356     0.30300
C1321       C  0.13798855  0.33889640  0.21275121    -0.06200
C1322       C  0.11984832  0.34382040  0.18462812    -0.33600
C1323       C  0.08668592  0.36113045  0.18358332     0.35600
C1324       C  0.07015703  0.37286857  0.21119359    -0.06600
C1325       C  0.08781309  0.36711116  0.23943828    -0.33500
C1326       C  0.12111114  0.34976167  0.24047841     0.35500
H1327       H  0.13208381  0.33569208  0.16293315     0.15900
O1328       O  0.07112727  0.36678572  0.15527088    -0.61000
H1329       H  0.07564249  0.37571626  0.26099612     0.15900
O1330       O  0.13746323  0.34519872  0.26858478    -0.61100
H1331       H  0.13008438  0.32018835  0.27611463     0.42900
H1332       H  0.08036980  0.39117818  0.14773673     0.42900
C1333       C  0.07493865  0.37512124  0.46076468    -0.06200
C1334       C  0.08941512  0.36085510  0.43352655    -0.33600
C1335       C  0.12200547  0.34212285  0.43398256     0.35600
C1336       C  0.14088731  0.33795852  0.46202083    -0.06600
C1337       C  0.12574548  0.35168484  0.48933837    -0.33500
C1338       C  0.09342504  0.37047792  0.48881869     0.35500
H1339       H  0.07516888  0.36375393  0.41186874     0.15900
O1340       O  0.13541221  0.32898100  0.40672971    -0.61000
H1341       H  0.13961286  0.34923308  0.51120506     0.15900
O1342       O  0.08053379  0.38467408  0.51587985    -0.61100
H1343       H  0.08340340  0.39597230  0.01900697     0.42900
H1344       H  0.12739664  0.30293279  0.40662331     0.42900
C1345       C  0.99036168  0.30077704  0.21073381    -0.06200
C1346       C  0.00595080  0.30098532  0.24031964    -0.33600
C1347       C  0.04197318  0.29065398  0.24481473     0.35600
C1348       C  0.06307548  0.27920877  0.21952385    -0.06600
C1349       C  0.04762147  0.28000556  0.18979242    -0.33500
C1350       C  0.01171355  0.29004584  0.18538790     0.35500
H1351       H  0.99045377  0.30998203  0.26014984     0.15900
O1352       O  0.05580767  0.29036909  0.27415660    -0.61000
H1353       H  0.06285999  0.27115462  0.16976665     0.15900
O1354       O  0.99777155  0.28889740  0.15616655    -0.61100
H1355       H  0.98833786  0.26342643  0.15421655     0.42900
H1356       H  0.05350278  0.31570700  0.28166087     0.42900
C1357       C  0.98761909  0.30495934  0.47999896    -0.06200
C1358       C  0.00216801  0.29409342  0.45154398    -0.33600
C1359       C  0.03791314  0.28260573  0.44887319     0.35600
C1360       C  0.05236992  0.27691131  0.97654535    -0.06600
C1361       C  0.03739706  0.28648567  0.00529277    -0.33500
C1362       C  0.00110710  0.29692451  0.00811067     0.35500
H1363       H  0.98597852  0.29505286  0.43084163     0.15900
O1364       O  0.04989635  0.27123861  0.42050138    -0.61000
H1365       H  0.05364204  0.28501700  0.02593483     0.15900
O1366       O  0.98756435  0.30497102  0.03684204    -0.61100
H1367       H  0.97931301  0.28108142  0.04619292     0.42900
H1368       H  0.05639909  0.29399868  0.40851735     0.42900
C1369       C  0.76621885  0.60693090  0.20921299    -0.06200
C1370       C  0.77881153  0.59354348  0.18099233    -0.33600
C1371       C  0.79173434  0.55783297  0.17921422     0.35600
C1372       C  0.79239495  0.53474004  0.20613303    -0.06600
C1373       C  0.78290935  0.54937989  0.23472455    -0.33500
C1374       C  0.77015568  0.58499312  0.23655003     0.35500
H1375       H  0.77692331  0.61010159  0.15989015     0.15900
O1376       O  0.80367307  0.54605731  0.15097338    -0.61000
H1377       H  0.78482124  0.53304490  0.25594869     0.15900
O1378       O  0.76049571  0.59746666  0.26520318    -0.61100
H1379       H  0.73664753  0.58577929  0.27039921     0.42900
H1380       H  0.78226147  0.53435405  0.14154402     0.42900
C1381       C  0.76681703  0.61473951  0.45896627    -0.06200
C1382       C  0.77295465  0.59714929  0.48789675    -0.33600
C1383       C  0.78789239  0.56243603  0.48989009     0.35600
C1384       C  0.79825391  0.54469816  0.46270972    -0.06600
C1385       C  0.79300864  0.56247761  0.43384211    -0.33500
C1386       C  0.77796538  0.59744001  0.43180794     0.35500
H1387       H  0.76473580  0.60958061  0.50935240     0.15900
O1388       O  0.79096686  0.54571536  0.01941335    -0.61000
H1389       H  0.80132311  0.54969891  0.41261686     0.15900
O1390       O  0.77300943  0.61386036  0.40323014    -0.61100
H1391       H  0.79651086  0.61280428  0.39190184     0.42900
H1392       H  0.76812415  0.53161932  0.02340155     0.42900
C1393       C  0.83295452  0.66711539  0.22606204    -0.06200
C1394       C  0.84782976  0.65496527  0.19810000    -0.33600
C1395       C  0.86787350  0.62288792  0.19730330     0.35600
C1396       C  0.87273698  0.60173311  0.22471038    -0.06600
C1397       C  0.85718237  0.61341095  0.25257417    -0.33500
C1398       C  0.83770066  0.64580395  0.25352406     0.35500
H1399       H  0.84544733  0.67123110  0.17687030     0.15900
O1400       O  0.88262533  0.61263384  0.16954583    -0.61000
H1401       H  0.86020903  0.59736873  0.27385284     0.15900
O1402       O  0.82472808  0.65690423  0.28170048    -0.61100
H1403       H  0.79802191  0.65499417  0.28054977     0.42900
H1404       H  0.86285242  0.59973937  0.15888885     0.42900
C1405       C  0.83629643  0.67001202  0.45790509    -0.06200
C1406       C  0.84406759  0.64723280  0.48347516    -0.33600
C1407       C  0.86219782  0.61458962  0.47974160     0.35600
C1408       C  0.87293142  0.60377636  0.44987861    -0.06600
C1409       C  0.86482076  0.62597667  0.42405221    -0.33500
C1410       C  0.84693540  0.65916131  0.42783995     0.35500
H1411       H  0.83721381  0.65251651  0.00609571     0.15900
O1412       O  0.86763286  0.59245996  0.50544097    -0.61000
H1413       H  0.87308495  0.61801801  0.40102482     0.15900
O1414       O  0.84207540  0.68154148  0.40222991    -0.61100
H1415       H  0.81726735  0.67589444  0.39517306     0.42900
H1416       H  0.88836645  0.60002102  0.01555595     0.42900
C1417       C  0.42246731  0.81742552  0.17812923    -0.06200
C1418       C  0.41283149  0.80909420  0.20922192    -0.33600
C1419       C  0.37826046  0.79607303  0.21762046     0.35600
C1420       C  0.35230945  0.78983266  0.19461691    -0.06600
C1421       C  0.36111274  0.80035897  0.16377274    -0.33500
C1422       C  0.39573155  0.81406202  0.15541937     0.35500
H1423       H  0.43189483  0.81359427  0.22759087     0.15900
O1424       O  0.36998677  0.79020332  0.24851851    -0.61000
H1425       H  0.34123040  0.79760132  0.14592137     0.15900
O1426       O  0.40340369  0.82277920  0.12488626    -0.61100
H1427       H  0.39480214  0.84818202  0.12164332     0.42900
H1428       H  0.38505409  0.76946317  0.25553262     0.42900
C1429       C  0.28239303  0.84906565  0.21268160    -0.06200
C1430       C  0.29183302  0.86130252  0.18231852    -0.33600
C1431       C  0.32460043  0.87979960  0.17611492     0.35600
C1432       C  0.34843135  0.88592396  0.20045430    -0.06600
C1433       C  0.33947928  0.87240100  0.23052624    -0.33500
C1434       C  0.30693093  0.85401589  0.23672489     0.35500
H1435       H  0.27297401  0.85845003  0.16354384     0.15900
O1436       O  0.33191470  0.89394877  0.14684450    -0.61000
H1437       H  0.35789802  0.87587570  0.24951356     0.15900
O1438       O  0.29894457  0.84221852  0.26656507    -0.61100
H1439       H  0.30422725  0.81563138  0.26719452     0.42900
H1440       H  0.33461775  0.87247045  0.13349329     0.42900
C1441       C  0.43194096  0.80649336  0.42576420    -0.06200
C1442       C  0.40469599  0.80974111  0.40353001    -0.33600
C1443       C  0.36838483  0.80110744  0.41118401     0.35600
C1444       C  0.35869228  0.78904927  0.44169337    -0.06600
C1445       C  0.38538733  0.79005062  0.46447893    -0.33500
C1446       C  0.42158635  0.79701773  0.45668139     0.35500
H1447       H  0.41165457  0.81828030  0.37992893     0.15900
O1448       O  0.34328491  0.80310820  0.38817175    -0.61000
H1449       H  0.37882057  0.78223701  0.48833345     0.15900
O1450       O  0.44642323  0.79521435  0.47993261    -0.61100
H1451       H  0.45610217  0.77008672  0.47935927     0.42900
H1452       H  0.32321364  0.81801618  0.39616189     0.42900
C1453       C  0.35266409  0.87805776  0.45740716    -0.06200
C1454       C  0.34349240  0.85915477  0.98589658    -0.33600
C1455       C  0.30977101  0.84269744  0.99139447     0.35600
C1456       C  0.28307416  0.84833077  0.46817217    -0.06600
C1457       C  0.29227317  0.86580688  0.43958196    -0.33500
C1458       C  0.32671073  0.88089920  0.43418062     0.35500
H1459       H  0.36364798  0.85678410  0.00377037     0.15900
O1460       O  0.30276739  0.82444604  0.01912645    -0.61000
H1461       H  0.27225586  0.86917363  0.42169067     0.15900
O1462       O  0.33392122  0.90052752  0.40712939    -0.61100
H1463       H  0.33636913  0.88209585  0.39083352     0.42900
H1464       H  0.30005241  0.84387481  0.03464040     0.42900
C1465       C  0.60719914  0.17138696  0.21888271    -0.06200
C1466       C  0.59708975  0.15322843  0.24703938    -0.33600
C1467       C  0.57551949  0.12150938  0.24734679     0.35600
C1468       C  0.56380242  0.10748462  0.21922581    -0.06600
C1469       C  0.57371606  0.12564749  0.19119234    -0.33500
C1470       C  0.59513784  0.15719033  0.19080295     0.35500
H1471       H  0.60560393  0.16374944  0.26903978     0.15900
O1472       O  0.56635513  0.10444251  0.27515243    -0.61000
H1473       H  0.56526364  0.11512461  0.16916272     0.15900
O1474       O  0.60273125  0.17454464  0.16284036    -0.61100
H1475       H  0.62404453  0.16198137  0.15425418     0.42900
H1476       H  0.54333718  0.11570461  0.28170526     0.42900
C1477       C  0.55334653  0.09054732  0.49032139    -0.06200
C1478       C  0.58900685  0.09847747  0.49937366    -0.33600
C1479       C  0.60249836  0.13466570  0.49745995     0.35600
C1480       C  0.58072826  0.16246722  0.48499458    -0.06600
C1481       C  0.54418822  0.15519049  0.47957379    -0.33500
C1482       C  0.53013295  0.11979687  0.48311102     0.35500
H1483       H  0.60718726  0.07651698  0.50549813     0.15900
O1484       O  0.63781015  0.14187612  0.50464159    -0.61000
H1485       H  0.52661080  0.17700108  0.47178506     0.15900
O1486       O  0.49418388  0.11373749  0.47722372    -0.61100
H1487       H  0.48159638  0.11579311  0.49758717     0.42900
H1488       H  0.63684717  0.15127959  0.52599595     0.42900
C1489       C  0.63696450  0.04459573  0.19637960    -0.06200
C1490       C  0.64276014  0.05653380  0.22652254    -0.33600
C1491       C  0.65783714  0.09115972  0.23180762     0.35600
C1492       C  0.66921849  0.11405534  0.20657929    -0.06600
C1493       C  0.66436318  0.10147540  0.17629596    -0.33500
C1494       C  0.64855077  0.06725070  0.17109666     0.35500
H1495       H  0.63439340  0.03956675  0.24633461     0.15900
O1496       O  0.66245017  0.10191897  0.26171321    -0.61000
H1497       H  0.67374765  0.11779043  0.15632858     0.15900
O1498       O  0.64478004  0.05628023  0.14116027    -0.61100
H1499       H  0.66651524  0.04144674  0.13679833     0.42900
H1500       H  0.63964623  0.09607616  0.27332458     0.42900
C1501       C  0.67360544  0.10547246  0.41140050    -0.06200
C1502       C  0.68711836  0.07365804  0.39804159    -0.33600
C1503       C  0.66706302  0.04092323  0.40068146     0.35600
C1504       C  0.63390382  0.04069543  0.41694054    -0.06600
C1505       C  0.61788750  0.07378235  0.42464590    -0.33500
C1506       C  0.63746352  0.10649125  0.42110749     0.35500
H1507       H  0.71499216  0.07284571  0.38986230     0.15900
O1508       O  0.68167056  0.00895082  0.39060349    -0.61000
H1509       H  0.59072589  0.07406958  0.43429387     0.15900
O1510       O  0.62306401  0.13860372  0.43090651    -0.61100
H1511       H  0.60301848  0.14402808  0.41662113     0.42900
H1512       H  0.67500357  0.00776004  0.36844604     0.42900
Zr1513     Zr  0.78060063  0.17006294  0.93172527     2.17500
O1514       O  0.79175839  0.22079500  0.89475179    -0.52100
O1515       O  0.72614790  0.14302984  0.91215379    -0.75300
O1516       O  0.78397161  0.14325195  0.87953742    -0.82100
O1517       O  0.75273585  0.23161042  0.49825084    -0.83800
O1518       O  0.81364359  0.08915022  0.88357790    -0.79400
O1519       O  0.74491347  0.22383044  0.94706964    -0.91100
O1520       O  0.69946557  0.12387197  0.95699219    -0.77000
O1521       O  0.77251324  0.10556523  0.94048998    -0.86500
O1522       O  0.75250565  0.16127500  0.48192517    -0.86200
O1523       O  0.84038684  0.14501425  0.92853414    -0.73000
O1524       O  0.82258435  0.19466625  0.96839425    -0.85100
Zr1525     Zr  0.84484436  0.09006286  0.52328696     2.26400
Zr1526     Zr  0.83113387  0.08033789  0.93689105     2.06300
Zr1527     Zr  0.79480518  0.18458107  0.51767521     2.10000
Zr1528     Zr  0.74351844  0.09808840  0.49082339     1.78800
O1529       O  0.82729867  0.24132770  0.52835802    -0.93900
O1530       O  0.71631531  0.04158913  0.97041674    -0.41700
O1531       O  0.78649673  0.11959670  0.52711077    -0.78300
O1532       O  0.80052255  0.06933753  0.48675319    -0.97000
O1533       O  0.87344245  0.10150699  0.97382123    -0.90300
O1534       O  0.85290995  0.15554841  0.51583028    -0.93200
C1535       C  0.70082802  0.12631901  0.92740608     1.00600
C1536       C  0.73755914  0.24012164  0.47233553     1.13500
C1537       C  0.79666466  0.11354544  0.86800749     1.04300
O1538       O  0.80774630  0.02684977  0.91071229    -0.95300
O1539       O  0.84745632  0.02100006  0.95641287    -0.91100
O1540       O  0.84882602  0.02323529  0.50885532    -0.84200
C1541       C  0.85084531  0.00537913  0.98301306     1.10900
O1542       O  0.89832259  0.22314866  0.93963079    -0.97300
Zr1543     Zr  0.88077471  0.16628687  0.96747406     1.88900
O1544       O  0.91179665  0.08854447  0.52614322    -0.74000
O1545       O  0.88957382  0.07603361  0.91045621    -0.53200
O1546       O  0.92146475  0.15673242  0.92364951    -0.97900
O1547       O  0.91012852  0.21423330  0.49449702    -0.55100
O1548       O  0.92872579  0.13328042  0.49117652    -0.74500
C1549       C  0.93604627  0.10734565  0.51059275     0.97900
O1550       O  0.83897855  0.04900143  0.56867333    -0.63300
O1551       O  0.74762039  0.19508893  0.55646829    -0.58100
O1552       O  0.84150429  0.11903372  0.57505205    -0.94800
O1553       O  0.80992381  0.17231071  0.57116320    -0.93200
O1554       O  0.70372754  0.11928534  0.53188996    -0.93600
O1555       O  0.72652767  0.04793965  0.52681141    -0.92300
C1556       C  0.82702145  0.14788714  0.58677445     1.16700
H1557       H  0.72909826  0.17226860  0.48443191     0.32700
H1558       H  0.79348991  0.04397693  0.48987689     0.43500
H1559       H  0.86848854  0.16510790  0.53152918     0.37000
H1560       H  0.85085234  0.15006169  0.90817421     0.33500
H1561       H  0.68604521  0.05316744  0.46833591     0.25300
H1562       H  0.90430812  0.06072833  0.92452717     0.31200
H1563       H  0.93061557  0.13169081  0.92733338     0.37200
H1564       H  0.71807659  0.11738876  0.55104056     0.31600
H1565       H  0.74831507  0.22185856  0.55973416     0.30500
H1566       H  0.82353614  0.25737367  0.50983988     0.32200
H1567       H  0.91908659  0.20003243  0.01714895     0.31100
H1568       H  0.74905063  0.04239732  0.53809907     0.35100
H1569       H  0.81889984  0.03175057  0.56401957     0.27900
H1570       H  0.77333627  0.21760246  0.87858781     0.32100
H1571       H  0.92507937  0.22470169  0.94018372     0.35000
H1572       H  0.72450330  0.19059749  0.54581644     0.27600
H1573       H  0.86102077  0.03393332  0.56843625     0.40400
H1574       H  0.78159514  0.02595383  0.91601104     0.30500
H1575       H  0.72799061  0.03827866  0.94994508     0.38100
H1576       H  0.89066739  0.23116228  0.50012311     0.30000
H1577       H  0.88483066  0.06023369  0.89257929     0.30000
H1578       H  0.81502021  0.21494469  0.88438534     0.30300
Zr1579     Zr  0.84827671  0.09330273  0.76708775     2.17500
O1580       O  0.88594492  0.06481613  0.80707399    -0.52100
O1581       O  0.84460570  0.02497721  0.75420996    -0.75300
O1582       O  0.82164966  0.09341391  0.82048065    -0.82100
O1583       O  0.92411810  0.12033376  0.71891330    -0.83800
O1584       O  0.76707005  0.12113854  0.81959166    -0.79400
O1585       O  0.91381806  0.09802167  0.76775083    -0.91100
O1586       O  0.83104791  0.01918486  0.70367886    -0.77000
O1587       O  0.78991060  0.07456291  0.75077183    -0.86500
O1588       O  0.85585804  0.08823737  0.71245458    -0.86200
O1589       O  0.81148341  0.14583778  0.77850335    -0.73000
O1590       O  0.85970062  0.15194456  0.74408163    -0.85100
Zr1591     Zr  0.77272193  0.17814459  0.68540378     2.26400
Zr1592     Zr  0.75200083  0.12511491  0.76431961     2.06300
Zr1593     Zr  0.87236680  0.14798510  0.69209381     2.10000
Zr1594     Zr  0.79685709  0.07166237  0.69533636     1.78800
O1595       O  0.90660418  0.20557081  0.68651260    -0.93900
O1596       O  0.75152352  0.02433638  0.70899377    -0.41700
O1597       O  0.81411052  0.13024069  0.67575423    -0.78300
O1598       O  0.75723449  0.11824921  0.70889347    -0.97000
O1599       O  0.76721879  0.18392035  0.74045843    -0.90300
O1600       O  0.83183695  0.19856487  0.70034156    -0.93200
C1601       C  0.84020185  0.00548844  0.72949662     1.00600
C1602       C  0.93494306  0.10610708  0.74486261     1.13500
C1603       C  0.79417749  0.10786462  0.83418313     1.04300
O1604       O  0.72098651  0.06573902  0.76775782    -0.95300
O1605       O  0.70335685  0.15779046  0.73838369    -0.91100
O1606       O  0.70833493  0.16263976  0.68731734    -0.84200
C1607       C  0.69196678  0.14945000  0.71161886     1.10900
O1608       O  0.86832288  0.21912874  0.79503814    -0.97300
Zr1609     Zr  0.82538565  0.20399457  0.75489578     1.88900
O1610       O  0.75848130  0.24209026  0.69772317    -0.74000
O1611       O  0.70367423  0.14374850  0.79962062    -0.53200
O1612       O  0.80658000  0.22970990  0.80421961    -0.97900
O1613       O  0.86732902  0.25146272  0.73538175    -0.55100
O1614       O  0.77336392  0.24692949  0.74786317    -0.74500
C1615       C  0.75460613  0.25713443  0.72412379     0.97900
O1616       O  0.74743003  0.20688352  0.63890725    -0.63300
O1617       O  0.92020112  0.13457817  0.65443512    -0.58100
O1618       O  0.79939820  0.16780311  0.63321753    -0.94800
O1619       O  0.85544458  0.14309350  0.63671818    -0.93200
O1620       O  0.82447852  0.05698786  0.64567763    -0.93600
O1621       O  0.75304397  0.06294453  0.65443209    -0.92300
C1622       C  0.82789784  0.15358688  0.62080514     1.16700
H1623       H  0.87421333  0.07078854  0.70700859     0.32700
H1624       H  0.73656708  0.10619343  0.70048433     0.43500
H1625       H  0.83889160  0.22109885  0.68933226     0.37000
H1626       H  0.81541631  0.15419948  0.79908525     0.33500
H1627       H  0.75507826  0.00507410  0.69357094     0.25300
H1628       H  0.69967477  0.12323562  0.81490427     0.31200
H1629       H  0.78274210  0.21805535  0.80916292     0.37200
H1630       H  0.84944992  0.06731297  0.64643904     0.31600
H1631       H  0.94250979  0.14611902  0.66244947     0.30500
H1632       H  0.90582653  0.21204146  0.66410076     0.32200
H1633       H  0.89151575  0.24057175  0.73734065     0.31100
H1634       H  0.75194910  0.08710001  0.64357599     0.35100
H1635       H  0.73035514  0.18845720  0.63088825     0.27900
H1636       H  0.87130720  0.04410261  0.81618891     0.32100
H1637       H  0.88011454  0.19566217  0.80014437     0.35000
H1638       H  0.92413370  0.10786560  0.65673887     0.27600
H1639       H  0.73171406  0.22670665  0.64621281     0.40400
H1640       H  0.72023381  0.05927283  0.79017265     0.30500
H1641       H  0.75968797  0.01297563  0.72871651     0.38100
H1642       H  0.86672667  0.27037681  0.75139087     0.30000
H1643       H  0.71387941  0.16418385  0.81158812     0.30000
H1644       H  0.88814718  0.08256648  0.82394096     0.30300
Zr1645     Zr  0.62450004  0.28238249  0.00484893     2.17500
O1646       O  0.63875536  0.24694284  0.55109405    -0.52100
O1647       O  0.68673115  0.26718167  0.49702683    -0.75300
O1648       O  0.60884163  0.21807774  0.99798136    -0.82100
O1649       O  0.59274197  0.36356938  0.55597920    -0.83800
O1650       O  0.59016951  0.21250818  0.94818733    -0.79400
O1651       O  0.60932595  0.30369651  0.55725269    -0.91100
O1652       O  0.70422351  0.28842874  0.94937263    -0.77000
O1653       O  0.63996846  0.28240275  0.95124832    -0.86500
O1654       O  0.65024512  0.34231975  0.99482112    -0.86200
O1655       O  0.56882357  0.27204911  0.97753819    -0.73000
O1656       O  0.57890535  0.32644962  0.01374247    -0.85100
Zr1657     Zr  0.55944427  0.37300358  0.92162501     2.26400
Zr1658     Zr  0.58528033  0.27302978  0.92341494     2.06300
Zr1659     Zr  0.60271509  0.38610145  0.00224268     2.10000
Zr1660     Zr  0.66526620  0.34165876  0.94108504     1.78800
O1661       O  0.56863349  0.43100773  0.53171789    -0.93900
O1662       O  0.69058024  0.32702097  0.89043961    -0.41700
O1663       O  0.61632218  0.38424995  0.94820267    -0.78300
O1664       O  0.61072567  0.33325949  0.91337096    -0.97000
O1665       O  0.53582733  0.31328623  0.93421127    -0.90300
O1666       O  0.54732088  0.37570769  0.97598119    -0.93200
C1667       C  0.70949062  0.26811933  0.97361083     1.00600
C1668       C  0.59798271  0.33269346  0.57050669     1.13500
C1669       C  0.59688606  0.19940228  0.97546175     1.04300
O1670       O  0.62357332  0.23321730  0.89311531    -0.95300
O1671       O  0.58608570  0.29274132  0.86850456    -0.91100
O1672       O  0.56896234  0.35244710  0.86792958    -0.84200
C1673       C  0.58053078  0.32366723  0.85431412     1.10900
O1674       O  0.49572750  0.26707921  0.52099276    -0.97300
Zr1675     Zr  0.52381797  0.31544811  0.98893818     1.88900
O1676       O  0.49090424  0.36910248  0.92658908    -0.74000
O1677       O  0.53155254  0.24112475  0.90531402    -0.53200
O1678       O  0.47338279  0.28066700  0.96809670    -0.97900
O1679       O  0.49745042  0.33229377  0.53809266    -0.55100
O1680       O  0.48130402  0.36088387  0.97768539    -0.74500
C1681       C  0.46950778  0.36670582  0.95074036     0.97900
O1682       O  0.54006754  0.41811581  0.88267318    -0.63300
O1683       O  0.65696511  0.41387003  0.51996233    -0.58100
O1684       O  0.57091563  0.43875361  0.92533880    -0.94800
O1685       O  0.60106565  0.44377764  0.97061148    -0.93200
O1686       O  0.71540238  0.37182516  0.96672000    -0.93600
O1687       O  0.69038679  0.39421943  0.91157182    -0.92300
C1688       C  0.58862933  0.45737921  0.94490538     1.16700
H1689       H  0.67081362  0.34658236  0.00784048     0.32700
H1690       H  0.62208489  0.33731834  0.89341946     0.43500
H1691       H  0.53219331  0.39630644  0.98065052     0.37000
H1692       H  0.55547601  0.24931165  0.98407733     0.33500
H1693       H  0.71710876  0.32827429  0.89299393     0.25300
H1694       H  0.52110667  0.25812193  0.88978435     0.31200
H1695       H  0.48478773  0.25999320  0.95746263     0.37200
H1696       H  0.73730138  0.35925563  0.95913929     0.31600
H1697       H  0.66273097  0.43385444  0.50464536     0.30500
H1698       H  0.58477486  0.43706517  0.54902780     0.32200
H1699       H  0.47597973  0.33500035  0.03825645     0.31100
H1700       H  0.66901500  0.40720632  0.90353827     0.35100
H1701       H  0.56026050  0.42102883  0.86734371     0.27900
H1702       H  0.65596557  0.22843761  0.54385033     0.32100
H1703       H  0.52388471  0.26185810  0.03837564     0.35000
H1704       H  0.64986851  0.42658239  0.53903906     0.27600
H1705       H  0.52042261  0.40581547  0.87138383     0.40400
H1706       H  0.64853248  0.23868521  0.89988116     0.30500
H1707       H  0.68504650  0.30053202  0.88812004     0.38100
H1708       H  0.50984799  0.36119014  0.04022115     0.30000
H1709       H  0.54116555  0.22073507  0.89300524     0.30000
H1710       H  0.61670863  0.23252702  0.55742592     0.30300
Zr1711     Zr  0.63704555  0.28798782  0.75683578     2.17500
O1712       O  0.65776905  0.25305302  0.80206306    -0.52100
O1713       O  0.70371474  0.28205262  0.75188020    -0.75300
O1714       O  0.63031928  0.22422199  0.74516024    -0.82100
O1715       O  0.58644745  0.35908710  0.80731783    -0.83800
O1716       O  0.63842224  0.22830710  0.69383647    -0.79400
O1717       O  0.61026164  0.30186208  0.80866013    -0.91100
O1718       O  0.71683544  0.30636741  0.70434970    -0.77000
O1719       O  0.65460015  0.29377551  0.70331591    -0.86500
O1720       O  0.65409018  0.35132580  0.74970658    -0.86200
O1721       O  0.58518745  0.27009905  0.72567617    -0.73000
O1722       O  0.58447310  0.32351573  0.76341948    -0.85100
Zr1723     Zr  0.56482277  0.37369899  0.67294352     2.26400
Zr1724     Zr  0.60347765  0.27845348  0.67218699     2.06300
Zr1725     Zr  0.59935490  0.38599876  0.75524922     2.10000
Zr1726     Zr  0.67166531  0.35603659  0.69640386     1.78800
O1727       O  0.56138048  0.42296826  0.78878308    -0.93900
O1728       O  0.70423827  0.34831320  0.64728486    -0.41700
O1729       O  0.61560808  0.38405264  0.70397730    -0.78300
O1730       O  0.62121825  0.34172623  0.66439660    -0.97000
O1731       O  0.54844660  0.31068620  0.68158402    -0.90300
O1732       O  0.54734288  0.36886157  0.72639354    -0.93200
C1733       C  0.72413518  0.28441570  0.72739737     1.00600
C1734       C  0.59294762  0.32831127  0.82148673     1.13500
C1735       C  0.62880954  0.21011701  0.71840695     1.04300
O1736       O  0.63220362  0.24436838  0.63100972    -0.95300
O1737       O  0.60073025  0.29989590  0.61830026    -0.91100
O1738       O  0.57631840  0.35665292  0.61838861    -0.84200
C1739       C  0.59048746  0.32945255  0.60434503     1.10900
O1740       O  0.52046405  0.25674449  0.77451446    -0.97300
Zr1741     Zr  0.53347174  0.30521276  0.73579301     1.88900
O1742       O  0.49579737  0.37138109  0.67807639    -0.74000
O1743       O  0.55150262  0.23807587  0.66431213    -0.53200
O1744       O  0.49543649  0.25635780  0.71588718    -0.97900
O1745       O  0.50576469  0.32566956  0.78383283    -0.55100
O1746       O  0.48088506  0.33396244  0.71915533    -0.74500
C1747       C  0.47239851  0.35629056  0.69761400     0.97900
O1748       O  0.54010006  0.41646202  0.63414059    -0.63300
O1749       O  0.64906546  0.42105455  0.77717483    -0.58100
O1750       O  0.57211920  0.43948672  0.67738337    -0.94800
O1751       O  0.58539325  0.44340074  0.72826030    -0.93200
O1752       O  0.71486745  0.39159491  0.72612828    -0.93600
O1753       O  0.69175890  0.41237348  0.66936432    -0.92300
C1754       C  0.57846916  0.45787611  0.70146584     1.16700
H1755       H  0.67288074  0.35799868  0.76397019     0.32700
H1756       H  0.63205582  0.34763882  0.64442824     0.43500
H1757       H  0.52746785  0.38476089  0.73146176     0.37000
H1758       H  0.57513864  0.24595725  0.72994126     0.33500
H1759       H  0.73024509  0.34854177  0.65258053     0.25300
H1760       H  0.55790943  0.22389114  0.64585557     0.31200
H1761       H  0.47220345  0.25785957  0.72755324     0.37200
H1762       H  0.73291136  0.37358313  0.73330105     0.31600
H1763       H  0.64108849  0.44685254  0.77627114     0.30500
H1764       H  0.57814864  0.44058665  0.79843698     0.32200
H1765       H  0.47937750  0.32423234  0.78044608     0.31100
H1766       H  0.67051106  0.42855775  0.67022790     0.35100
H1767       H  0.56004347  0.42309118  0.61932912     0.27900
H1768       H  0.67665272  0.23662781  0.79410572     0.32100
H1769       H  0.54366833  0.25313602  0.78524423     0.35000
H1770       H  0.64833929  0.41420284  0.79955584     0.27600
H1771       H  0.52271733  0.40191787  0.62202970     0.40400
H1772       H  0.65846139  0.24911009  0.63334799     0.30500
H1773       H  0.69902070  0.32263638  0.64160228     0.38100
H1774       H  0.51143384  0.35229897  0.78428906     0.30000
H1775       H  0.55150126  0.21998447  0.68184698     0.30000
H1776       H  0.63734450  0.23624409  0.80799151     0.30300
Zr1777     Zr  0.46046705  0.90731630  0.90154645     2.17500
O1778       O  0.40715520  0.89997149  0.86951471    -0.52100
O1779       O  0.47360879  0.84331670  0.89364405    -0.75300
O1780       O  0.47191126  0.92575994  0.84704561    -0.82100
O1781       O  0.40444118  0.90164660  0.97662462    -0.83800
O1782       O  0.53047195  0.94528596  0.84385193    -0.79400
O1783       O  0.40126229  0.89413777  0.92464142    -0.91100
O1784       O  0.49303680  0.81205341  0.93414091    -0.77000
O1785       O  0.52186762  0.88730016  0.89989589    -0.86500
O1786       O  0.47426820  0.88029099  0.95098423    -0.86200
O1787       O  0.49449816  0.96368694  0.89440362    -0.73000
O1788       O  0.44684562  0.95155033  0.94036800    -0.85100
Zr1789     Zr  0.56026346  0.96152655  0.48025746     2.26400
Zr1790     Zr  0.55627607  0.94277266  0.89410030     2.06300
Zr1791     Zr  0.46438871  0.92521185  0.48921560     2.10000
Zr1792     Zr  0.53540454  0.85983497  0.94938042     1.78800
O1793       O  0.42430480  0.96993571  0.51192537    -0.93900
O1794       O  0.57099861  0.82542461  0.91239543    -0.41700
O1795       O  0.52592982  0.90594443  0.48933830    -0.78300
O1796       O  0.57190220  0.91532445  0.94285121    -0.97000
O1797       O  0.54306333  0.98709643  0.93166974    -0.90300
O1798       O  0.49613684  0.97917465  0.98281072    -0.93200
C1799       C  0.46787663  0.81904149  0.91502906     1.00600
C1800       C  0.38790151  0.89255954  0.95230195     1.13500
C1801       C  0.49975395  0.93905659  0.83202111     1.04300
O1802       O  0.59744150  0.89315229  0.88306171    -0.95300
O1803       O  0.59983889  0.99052962  0.90195518    -0.91100
O1804       O  0.60485154  0.99866803  0.95377676    -0.84200
C1805       C  0.61288955  0.00653058  0.92519781     1.10900
O1806       O  0.43375106  0.02872317  0.90157540    -0.97300
Zr1807     Zr  0.48251118  0.00620889  0.93387148     1.88900
O1808       O  0.55884030  0.02549044  0.49428730    -0.74000
O1809       O  0.59793685  0.96722723  0.85376971    -0.53200
O1810       O  0.50117609  0.05292060  0.89523000    -0.97900
O1811       O  0.43534314  0.03630391  0.96348582    -0.55100
O1812       O  0.51885704  0.05037519  0.96022030    -0.74500
C1813       C  0.54310470  0.05288956  0.98094742     0.97900
O1814       O  0.61663512  0.94560100  0.50542081    -0.63300
O1815       O  0.44485780  0.87766585  0.52699663    -0.58100
O1816       O  0.54633005  0.95275882  0.53557591    -0.94800
O1817       O  0.48893002  0.92934485  0.53937818    -0.93200
O1818       O  0.52478879  0.82418516  0.50014493    -0.93600
O1819       O  0.59266608  0.83814094  0.47623106    -0.92300
C1820       C  0.51853450  0.94010427  0.55107916     1.16700
H1821       H  0.45755436  0.86104584  0.95734293     0.32700
H1822       H  0.59740814  0.91009683  0.94313402     0.43500
H1823       H  0.49351177  0.99650219  0.49839156     0.37000
H1824       H  0.48827166  0.97806907  0.87630124     0.33500
H1825       H  0.57098552  0.80009092  0.92115298     0.25300
H1826       H  0.59975045  0.94816643  0.83799606     0.31200
H1827       H  0.52793297  0.05312630  0.89561649     0.37200
H1828       H  0.52806304  0.79826400  0.49464399     0.31600
H1829       H  0.42177396  0.88634661  0.53592248     0.30500
H1830       H  0.40912136  0.95556628  0.52716683     0.32200
H1831       H  0.44536202  0.03936901  0.98435642     0.31100
H1832       H  0.59693054  0.85530754  0.49319928     0.35100
H1833       H  0.61239699  0.92032589  0.51379346     0.27900
H1834       H  0.41469143  0.88421504  0.85236017     0.32100
H1835       H  0.42485671  0.00680471  0.89078678     0.35000
H1836       H  0.43795838  0.85617904  0.51478187     0.27600
H1837       H  0.63440020  0.94278625  0.48823158     0.40400
H1838       H  0.58781816  0.88210636  0.86406235     0.30500
H1839       H  0.55570158  0.82374031  0.89383672     0.38100
H1840       H  0.41585350  0.01750682  0.96641615     0.30000
H1841       H  0.58530748  0.98785565  0.84333544     0.30000
H1842       H  0.40309970  0.92439746  0.85968627     0.30300
Zr1843     Zr  0.46279534  0.92451725  0.65047017     2.17500
O1844       O  0.41777198  0.93339510  0.61032538    -0.52100
O1845       O  0.46530511  0.85816347  0.64891933    -0.75300
O1846       O  0.49022577  0.92544854  0.59868819    -0.82100
O1847       O  0.39593710  0.92401134  0.71526938    -0.83800
O1848       O  0.54601609  0.95285178  0.59820487    -0.79400
O1849       O  0.40137413  0.90602988  0.66552016    -0.91100
O1850       O  0.48369911  0.83610065  0.69481799    -0.77000
O1851       O  0.52346605  0.90473014  0.65833375    -0.86500
O1852       O  0.46517610  0.90482236  0.70362719    -0.86200
O1853       O  0.49995559  0.97844774  0.64142608    -0.73000
O1854       O  0.44282222  0.97487389  0.68116728    -0.85100
Zr1855     Zr  0.54403251  0.98673769  0.73478249     2.26400
Zr1856     Zr  0.56095907  0.95862190  0.65189976     2.06300
Zr1857     Zr  0.44863947  0.95508535  0.73402491     2.10000
Zr1858     Zr  0.52518272  0.88397417  0.71106590     1.78800
O1859       O  0.41363243  0.00937620  0.74597326    -0.93900
O1860       O  0.56288872  0.84087213  0.68293648    -0.41700
O1861       O  0.50737046  0.93590313  0.73632711    -0.78300
O1862       O  0.56506387  0.93632128  0.70437694    -0.97000
O1863       O  0.54148153  0.00826045  0.68244849    -0.90300
O1864       O  0.48463345  0.00906651  0.72662875    -0.93200
C1865       C  0.46084602  0.83692231  0.67277578     1.00600
C1866       C  0.38417823  0.90771194  0.69152518     1.13500
C1867       C  0.51883585  0.93873474  0.58476932     1.04300
O1868       O  0.60216312  0.90716282  0.65345605    -0.95300
O1869       O  0.60100038  0.00758120  0.66806341    -0.91100
O1870       O  0.60667094  0.99219190  0.71808938    -0.84200
C1871       C  0.61529892  0.01244430  0.69448727     1.10900
O1872       O  0.43470407  0.04307414  0.63617006    -0.97300
Zr1873     Zr  0.48153946  0.02742584  0.67314933     1.88900
O1874       O  0.54609603  0.05369916  0.73430819    -0.74000
O1875       O  0.61105093  0.97766941  0.61718432    -0.53200
O1876       O  0.50105296  0.06468723  0.62807980    -0.97900
O1877       O  0.43818854  0.06632178  0.69920085    -0.55100
O1878       O  0.52278963  0.07429492  0.68889561    -0.74500
C1879       C  0.54213060  0.07834160  0.71284364     0.97900
O1880       O  0.57924361  0.99867334  0.78106483    -0.63300
O1881       O  0.40762341  0.93393968  0.77616437    -0.58100
O1882       O  0.52474615  0.96605572  0.78661203    -0.94800
O1883       O  0.46733667  0.94328240  0.78606605    -0.93200
O1884       O  0.50550059  0.85106309  0.75828557    -0.93600
O1885       O  0.57625269  0.86561320  0.74261690    -0.92300
C1886       C  0.49687504  0.95020466  0.79962050     1.16700
H1887       H  0.44805842  0.88578137  0.70978083     0.32700
H1888       H  0.58944218  0.92929117  0.70938904     0.43500
H1889       H  0.47868109  0.02835039  0.74071653     0.37000
H1890       H  0.49729905  0.98831148  0.62062364     0.33500
H1891       H  0.56117481  0.81771938  0.69548651     0.25300
H1892       H  0.61504963  0.95702825  0.60319206     0.31200
H1893       H  0.52740153  0.06028373  0.62597889     0.37200
H1894       H  0.50854627  0.82481277  0.75373046     0.31600
H1895       H  0.38317076  0.94237771  0.77060750     0.30500
H1896       H  0.39201190  0.00762950  0.73291406     0.32200
H1897       H  0.41394256  0.05743652  0.69273324     0.31100
H1898       H  0.57690215  0.88359960  0.75933261     0.35100
H1899       H  0.60409169  0.99017694  0.77680206     0.27900
H1900       H  0.42037311  0.91232069  0.59654105     0.32100
H1901       H  0.42647355  0.01919429  0.62815345     0.35000
H1902       H  0.40638795  0.90687348  0.77487412     0.27600
H1903       H  0.58151283  0.02572666  0.78213545     0.40400
H1904       H  0.59571850  0.89260989  0.63524820     0.30500
H1905       H  0.54959308  0.83537067  0.66383995     0.38100
H1906       H  0.44129906  0.09059186  0.68874900     0.30000
H1907       H  0.60148473  0.99761058  0.60379200     0.30000
H1908       H  0.42644569  0.95501701  0.59769140     0.30300
Zr1909     Zr  0.36641624  0.59659707  0.91191149     2.17500
O1910       O  0.39143230  0.55248820  0.87609011    -0.52100
O1911       O  0.43559801  0.60061524  0.91794392    -0.75300
O1912       O  0.35502051  0.61334975  0.85658998    -0.82100
O1913       O  0.33603780  0.52981562  0.97034659    -0.83800
O1914       O  0.33970608  0.67331823  0.85398144    -0.79400
O1915       O  0.35573624  0.53122527  0.92028097    -0.91100
O1916       O  0.44283631  0.61046764  0.96840269    -0.77000
O1917       O  0.38974980  0.65685107  0.91875419    -0.86500
O1918       O  0.37811767  0.59680636  0.96620963    -0.86200
O1919       O  0.31405112  0.63510076  0.90206074    -0.73000
O1920       O  0.30968158  0.58543126  0.94163607    -0.85100
Zr1921     Zr  0.30096058  0.69136672  0.99115933     2.26400
Zr1922     Zr  0.33955839  0.69547197  0.90643919     2.06300
Zr1923     Zr  0.32333635  0.58796384  0.99524941     2.10000
Zr1924     Zr  0.40164047  0.65770427  0.97324120     1.78800
O1925       O  0.26689137  0.55910794  0.01387243    -0.93900
O1926       O  0.44887369  0.68982424  0.94259641    -0.41700
O1927       O  0.34691805  0.64793795  0.00081690    -0.78300
O1928       O  0.35607943  0.69951035  0.96003162    -0.97000
O1929       O  0.28544118  0.68693699  0.93769348    -0.90300
O1930       O  0.27543085  0.63078167  0.98641438    -0.93200
C1931       C  0.45600818  0.60350254  0.94222617     1.00600
C1932       C  0.34550753  0.51395690  0.94510131     1.13500
C1933       C  0.34454403  0.64231656  0.84150352     1.04300
O1934       O  0.39727911  0.72684044  0.89644666    -0.95300
O1935       O  0.30906260  0.74829196  0.92608223    -0.91100
O1936       O  0.31820473  0.75494943  0.97584511    -0.84200
C1937       C  0.32396636  0.76580869  0.94760783     1.10900
O1938       O  0.24207327  0.57188676  0.90642488    -0.97300
Zr1939     Zr  0.26008797  0.62726340  0.93321692     1.88900
O1940       O  0.23533106  0.70207659  0.98695183    -0.74000
O1941       O  0.31720306  0.73809297  0.86677600    -0.53200
O1942       O  0.23037622  0.64179694  0.88446315    -0.97900
O1943       O  0.21131782  0.59638668  0.96310382    -0.55100
O1944       O  0.21788859  0.67784915  0.94166690    -0.74500
C1945       C  0.21301906  0.69944881  0.96445376     0.97900
O1946       O  0.28443289  0.73101356  0.03358177    -0.63300
O1947       O  0.34838936  0.54774981  0.03529059    -0.58100
O1948       O  0.32325879  0.67359724  0.54471251    -0.94800
O1949       O  0.33690748  0.61283025  0.54618034    -0.93200
O1950       O  0.42904310  0.64562192  0.02335565    -0.93600
O1951       O  0.42200016  0.70740478  0.00564533    -0.92300
C1952       C  0.33484144  0.64432169  0.55902743     1.16700
H1953       H  0.39261926  0.57605115  0.97216720     0.32700
H1954       H  0.36955674  0.72148132  0.96377476     0.43500
H1955       H  0.25500068  0.62694488  0.00044616     0.37000
H1956       H  0.30247182  0.63025380  0.88280207     0.33500
H1957       H  0.44419416  0.71616796  0.94525284     0.25300
H1958       H  0.33634286  0.74083260  0.85049309     0.31200
H1959       H  0.24225636  0.66483098  0.87680676     0.37200
H1960       H  0.40981971  0.63298856  0.03604453     0.31600
H1961       H  0.33407570  0.52509940  0.53268781     0.30500
H1962       H  0.26816118  0.53357746  0.00674148     0.32200
H1963       H  0.21751150  0.57010383  0.96376487     0.31100
H1964       H  0.39960729  0.71676020  0.01531127     0.35100
H1965       H  0.30723836  0.74373645  0.03907890     0.27900
H1966       H  0.40988050  0.56646700  0.86348080     0.32100
H1967       H  0.21615094  0.57459728  0.90162133     0.35000
H1968       H  0.36621291  0.53252951  0.02449399     0.27600
H1969       H  0.26957676  0.75047092  0.02405328     0.40400
H1970       H  0.40264459  0.72279938  0.87430024     0.30500
H1971       H  0.47148598  0.68531307  0.95400267     0.38100
H1972       H  0.18968869  0.59792583  0.94975315     0.30000
H1973       H  0.29658852  0.72555640  0.85686485     0.30000
H1974       H  0.37201382  0.54664229  0.86142391     0.30300
Zr1975     Zr  0.36648068  0.59889459  0.66214882     2.17500
O1976       O  0.39296903  0.55674924  0.62503753    -0.52100
O1977       O  0.43550129  0.60315235  0.66942514    -0.75300
O1978       O  0.35715918  0.61815035  0.60674745    -0.82100
O1979       O  0.33588988  0.53039292  0.71739368    -0.83800
O1980       O  0.34001939  0.67763523  0.60515660    -0.79400
O1981       O  0.35749920  0.53283236  0.66804994    -0.91100
O1982       O  0.44265332  0.61122412  0.72018092    -0.77000
O1983       O  0.39064631  0.65845088  0.67106057    -0.86500
O1984       O  0.37785568  0.59727503  0.71640827    -0.86200
O1985       O  0.31524439  0.63832094  0.65214214    -0.73000
O1986       O  0.31174861  0.59357296  0.69145284    -0.85100
Zr1987     Zr  0.30099991  0.69126095  0.74309701     2.26400
Zr1988     Zr  0.34131387  0.69825214  0.65859464     2.06300
Zr1989     Zr  0.32191525  0.58726295  0.74339131     2.10000
Zr1990     Zr  0.40125800  0.65787684  0.72597738     1.78800
O1991       O  0.26449114  0.55875273  0.76019052    -0.93900
O1992       O  0.45018679  0.69436670  0.70114734    -0.41700
O1993       O  0.34575589  0.64655694  0.75145549    -0.78300
O1994       O  0.35675971  0.70114116  0.71276618    -0.97000
O1995       O  0.28649707  0.68959247  0.68918243    -0.90300
O1996       O  0.27484415  0.63133292  0.73633531    -0.93200
C1997       C  0.45582130  0.60545695  0.69383086     1.00600
C1998       C  0.34660234  0.51497323  0.69236402     1.13500
C1999       C  0.34595956  0.64712321  0.59198207     1.04300
O2000       O  0.39985338  0.72887866  0.65081800    -0.95300
O2001       O  0.30866193  0.74890193  0.67993344    -0.91100
O2002       O  0.31660557  0.75533380  0.72979299    -0.84200
C2003       C  0.32268513  0.76660735  0.70182908     1.10900
O2004       O  0.23720034  0.58103681  0.65169484    -0.97300
Zr2005     Zr  0.26115072  0.63032381  0.68279829     1.88900
O2006       O  0.23536258  0.70166738  0.74015701    -0.74000
O2007       O  0.32357126  0.74440862  0.61992025    -0.53200
O2008       O  0.23339962  0.65054123  0.63432937    -0.97900
O2009       O  0.21176558  0.59720522  0.71047268    -0.55100
O2010       O  0.22023575  0.68205756  0.69281300    -0.74500
C2011       C  0.21440210  0.70182539  0.71665072     0.97900
O2012       O  0.28608515  0.72898350  0.78721928    -0.63300
O2013       O  0.34340394  0.54285643  0.78216755    -0.58100
O2014       O  0.32145533  0.66910941  0.79506183    -0.94800
O2015       O  0.33588631  0.60858580  0.79553137    -0.93200
O2016       O  0.42533212  0.63936776  0.77612573    -0.93600
O2017       O  0.41810411  0.70306830  0.76404493    -0.92300
C2018       C  0.33326163  0.63965126  0.80887281     1.16700
H2019       H  0.39231877  0.57632922  0.72206668     0.32700
H2020       H  0.36983778  0.72331930  0.71709627     0.43500
H2021       H  0.25432109  0.62720836  0.75025861     0.37000
H2022       H  0.30375071  0.63387489  0.63275989     0.33500
H2023       H  0.47145033  0.69003657  0.71435970     0.25300
H2024       H  0.34313207  0.74598200  0.60399187     0.31200
H2025       H  0.20693017  0.64774769  0.63801822     0.37200
H2026       H  0.41213238  0.61621849  0.78187641     0.31600
H2027       H  0.32481267  0.52300055  0.78328733     0.30500
H2028       H  0.26136629  0.56594310  0.78208835     0.32200
H2029       H  0.19258323  0.59392842  0.69498079     0.31100
H2030       H  0.43142714  0.72283224  0.75234899     0.35100
H2031       H  0.30832073  0.74370147  0.79090689     0.27900
H2032       H  0.41203734  0.57126679  0.61353897     0.32100
H2033       H  0.25889558  0.56988811  0.64250581     0.35000
H2034       H  0.36492568  0.53150704  0.77267456     0.27600
H2035       H  0.26852302  0.74701637  0.77933305     0.40400
H2036       H  0.40863602  0.72058975  0.63041867     0.30500
H2037       H  0.45619409  0.68213370  0.68159890     0.38100
H2038       H  0.20127829  0.61513103  0.72479399     0.30000
H2039       H  0.30217874  0.73420045  0.60938316     0.30000
H2040       H  0.37428201  0.55176918  0.60948891     0.30300
Zr2041     Zr  0.16672009  0.81134143  0.93682492     2.17500
O2042       O  0.20599487  0.79862318  0.89243899    -0.52100
O2043       O  0.17800754  0.74525771  0.93902002    -0.75300
O2044       O  0.22864223  0.82366570  0.94974605    -0.82100
O2045       O  0.09029813  0.84623761  0.88481796    -0.83800
O2046       O  0.23167274  0.84147161  0.50108170    -0.79400
O2047       O  0.15010805  0.83226706  0.88432725    -0.91100
O2048       O  0.16204705  0.72974752  0.98816493    -0.77000
O2049       O  0.16498331  0.79223383  0.99008807    -0.86500
O2050       O  0.10784113  0.78408992  0.94391185    -0.86200
O2051       O  0.17747071  0.86523227  0.96713487    -0.73000
O2052       O  0.12412008  0.85846373  0.92829404    -0.85100
Zr2053     Zr  0.07160111  0.87246498  0.51964946     2.26400
Zr2054     Zr  0.17053250  0.84933114  0.52128371     2.06300
Zr2055     Zr  0.06551250  0.83300914  0.93768591     2.10000
Zr2056     Zr  0.10580112  0.76804190  0.49891901     1.78800
O2057       O  0.02148270  0.85342726  0.89949109    -0.93900
O2058       O  0.11868981  0.73837343  0.54896363    -0.41700
O2059       O  0.07044817  0.81807115  0.98924938    -0.78300
O2060       O  0.11158836  0.82136136  0.52927900    -0.97000
O2061       O  0.13021375  0.89894862  0.51032133    -0.90300
O2062       O  0.07559568  0.88772119  0.96516171    -0.93200
C2063       C  0.18187902  0.72539471  0.96366585     1.00600
C2064       C  0.12140379  0.84390941  0.87086698     1.13500
C2065       C  0.24667210  0.83180529  0.97375043     1.04300
O2066       O  0.20773624  0.81384624  0.55684359    -0.95300
O2067       O  0.14891657  0.84954980  0.57489751    -0.91100
O2068       O  0.08924483  0.86385364  0.57430360    -0.84200
C2069       C  0.11814495  0.85418357  0.58848445     1.10900
O2070       O  0.18578573  0.93232954  0.92166731    -0.97300
Zr2071     Zr  0.13567923  0.91199494  0.95586935     1.88900
O2072       O  0.07580649  0.94238559  0.51774403    -0.74000
O2073       O  0.19949336  0.90558558  0.53821045    -0.53200
O2074       O  0.16019948  0.96607573  0.48007425    -0.97900
O2075       O  0.11975468  0.93963253  0.90597808    -0.55100
O2076       O  0.08407600  0.95446109  0.46703864    -0.74500
C2077       C  0.07818555  0.96525884  0.49412853     0.97900
O2078       O  0.02288784  0.88243459  0.55759290    -0.63300
O2079       O  0.03729291  0.77387537  0.92705483    -0.58100
O2080       O  0.00695821  0.87115251  0.51053357    -0.94800
O2081       O  0.00808936  0.85343470  0.96041443    -0.93200
O2082       O  0.07805691  0.71717074  0.96833108    -0.93600
O2083       O  0.05529638  0.73630333  0.52551373    -0.92300
C2084       C  0.99279040  0.86417422  0.98567755     1.16700
H2085       H  0.10447010  0.76414350  0.92984599     0.32700
H2086       H  0.10753254  0.80976610  0.54937497     0.43500
H2087       H  0.05593954  0.90372248  0.95978173     0.37000
H2088       H  0.20009912  0.87802045  0.96261806     0.33500
H2089       H  0.12349354  0.71241415  0.54426127     0.25300
H2090       H  0.18158355  0.91665518  0.55234869     0.31200
H2091       H  0.16051514  0.98293568  0.97375890     0.37200
H2092       H  0.08890326  0.69434903  0.97671887     0.31600
H2093       H  0.01098305  0.77851804  0.92725260     0.30500
H2094       H  0.01619737  0.83178209  0.88690400     0.32200
H2095       H  0.11918754  0.96636704  0.90944098     0.31100
H2096       H  0.04219565  0.75596526  0.53603169     0.35100
H2097       H  0.02148982  0.86027509  0.57135046     0.27900
H2098       H  0.22344362  0.78029452  0.90008400     0.32100
H2099       H  0.18685399  0.95941669  0.92274008     0.35000
H2100       H  0.04332117  0.76971634  0.90503769     0.27600
H2101       H  0.03163152  0.90236573  0.57087811     0.40400
H2102       H  0.20984487  0.78960179  0.54730114     0.30500
H2103       H  0.14255497  0.74852452  0.55476856     0.38100
H2104       H  0.09410068  0.93242167  0.90317906     0.30000
H2105       H  0.21901333  0.89712690  0.55199037     0.30000
H2106       H  0.22078211  0.82124657  0.88868036     0.30300
Zr2107     Zr  0.16488153  0.81354831  0.68644465     2.17500
O2108       O  0.19989869  0.80048997  0.63961469    -0.52100
O2109       O  0.17973170  0.74810998  0.69123127    -0.75300
O2110       O  0.22752101  0.82847253  0.69478764    -0.82100
O2111       O  0.08509148  0.84693422  0.63655877    -0.83800
O2112       O  0.23397425  0.84427857  0.74502305    -0.79400
O2113       O  0.14457159  0.83190889  0.63452388    -0.91100
O2114       O  0.16449306  0.73336431  0.74076283    -0.77000
O2115       O  0.16606368  0.79596709  0.73991913    -0.86500
O2116       O  0.10684982  0.78517317  0.69581056    -0.86200
O2117       O  0.17535366  0.86896779  0.71495222    -0.73000
O2118       O  0.12051593  0.85908799  0.67852642    -0.85100
Zr2119     Zr  0.07514680  0.87388264  0.77017431     2.26400
Zr2120     Zr  0.17416495  0.85047042  0.76884870     2.06300
Zr2121     Zr  0.06285590  0.83272298  0.69015582     2.10000
Zr2122     Zr  0.10832069  0.76881250  0.74936590     1.78800
O2123       O  0.01651679  0.84593500  0.65166697    -0.93900
O2124       O  0.12352901  0.74019186  0.79929151    -0.41700
O2125       O  0.07053963  0.81950550  0.74182511    -0.78300
O2126       O  0.11546333  0.82272792  0.77864968    -0.97000
O2127       O  0.13345982  0.90010165  0.75870560    -0.90300
O2128       O  0.07271547  0.88862895  0.71619053    -0.93200
C2129       C  0.18386330  0.72857507  0.71608870     1.00600
C2130       C  0.11555058  0.84378934  0.62176451     1.13500
C2131       C  0.24654340  0.83881091  0.71756217     1.04300
O2132       O  0.21428792  0.81486780  0.80175534    -0.95300
O2133       O  0.15477808  0.84968392  0.82344216    -0.91100
O2134       O  0.09537754  0.86517680  0.82399113    -0.84200
C2135       C  0.12437759  0.85478806  0.83763025     1.10900
O2136       O  0.17896013  0.93439837  0.66736919    -0.97300
Zr2137     Zr  0.13153306  0.91404307  0.70407919     1.88900
O2138       O  0.08014124  0.94382242  0.76812440    -0.74000
O2139       O  0.20342486  0.90639261  0.78605488    -0.53200
O2140       O  0.16548884  0.96654265  0.72288595    -0.97900
O2141       O  0.10920265  0.93738195  0.65467691    -0.55100
O2142       O  0.08633000  0.95559031  0.71722049    -0.74500
C2143       C  0.08190825  0.96659393  0.74441158     0.97900
O2144       O  0.02879899  0.88424534  0.81016380    -0.63300
O2145       O  0.03510958  0.77230908  0.68370450    -0.58100
O2146       O  0.00998965  0.87415821  0.76284572    -0.94800
O2147       O  0.00682818  0.85585842  0.71319766    -0.93200
O2148       O  0.08251187  0.71715142  0.72186225    -0.93600
O2149       O  0.05848659  0.73847443  0.77797727    -0.92300
C2150       C  0.99232443  0.86795335  0.73829833     1.16700
H2151       H  0.10321173  0.76486612  0.68215417     0.32700
H2152       H  0.11208514  0.81111623  0.79875573     0.43500
H2153       H  0.05278386  0.90441804  0.71110351     0.37000
H2154       H  0.19726090  0.88231206  0.70922232     0.33500
H2155       H  0.12601870  0.71374974  0.79516447     0.25300
H2156       H  0.22150715  0.89776745  0.80119566     0.31200
H2157       H  0.17280931  0.95939150  0.74411101     0.37200
H2158       H  0.10351860  0.70215103  0.71589438     0.31600
H2159       H  0.02932487  0.76344368  0.70509110     0.30500
H2160       H  0.01747303  0.82585777  0.63665041     0.32200
H2161       H  0.11157365  0.96442230  0.65576102     0.31100
H2162       H  0.03651591  0.74666417  0.76719560     0.35100
H2163       H  0.02777929  0.86201058  0.82385124     0.27900
H2164       H  0.21650784  0.78069626  0.64568500     0.32100
H2165       H  0.18598263  0.91193659  0.65648690     0.35000
H2166       H  0.01116365  0.77684011  0.67444478     0.27600
H2167       H  0.03850869  0.90402667  0.82318991     0.40400
H2168       H  0.20400847  0.78964482  0.80192081     0.30500
H2169       H  0.14856684  0.74877430  0.80332786     0.38100
H2170       H  0.08274446  0.93242324  0.65564728     0.30000
H2171       H  0.21805462  0.91531875  0.76791603     0.30000
H2172       H  0.21595049  0.82225576  0.63568132     0.30300
Zr2173     Zr  0.79556137  0.78846623  0.93194235     2.17500
O2174       O  0.77061572  0.75360256  0.88948238    -0.52100
O2175       O  0.73041301  0.77296508  0.93873977    -0.75300
O2176       O  0.81315668  0.72485325  0.94023498    -0.82100
O2177       O  0.83230238  0.87068014  0.87933767    -0.83800
O2178       O  0.82655313  0.71904032  0.49124893    -0.79400
O2179       O  0.81761779  0.80976603  0.87998967    -0.91100
O2180       O  0.71494529  0.79419560  0.98570292    -0.77000
O2181       O  0.77987331  0.78757316  0.98569188    -0.86500
O2182       O  0.77115284  0.84818238  0.93981796    -0.86200
O2183       O  0.85100110  0.77812552  0.95975712    -0.73000
O2184       O  0.84148469  0.83385613  0.92296918    -0.85100
Zr2185     Zr  0.85976195  0.87892001  0.51229623     2.26400
Zr2186     Zr  0.83302865  0.77906786  0.51411794     2.06300
Zr2187     Zr  0.81969017  0.89295221  0.93246589     2.10000
Zr2188     Zr  0.75416841  0.84704186  0.49453277     1.78800
O2189       O  0.84109160  0.93875703  0.89367416    -0.93900
O2190       O  0.72622066  0.83102933  0.54498247    -0.41700
O2191       O  0.80843765  0.88431485  0.98453718    -0.78300
O2192       O  0.80817331  0.83826696  0.52290641    -0.97000
O2193       O  0.88296000  0.82021664  0.50114689    -0.90300
O2194       O  0.87537899  0.88202475  0.95799817    -0.93200
C2195       C  0.70930858  0.77298539  0.96278200     1.00600
C2196       C  0.82960154  0.83938537  0.86594771     1.13500
C2197       C  0.82456944  0.70551609  0.96334158     1.04300
O2198       O  0.79551716  0.73776503  0.54673170    -0.95300
O2199       O  0.83484075  0.79777199  0.56859658    -0.91100
O2200       O  0.85106561  0.85823815  0.56707239    -0.84200
C2201       C  0.84075884  0.82856497  0.58187880     1.10900
O2202       O  0.91403584  0.77752926  0.90812474    -0.97300
Zr2203     Zr  0.89672596  0.82197172  0.94663332     1.88900
O2204       O  0.92824025  0.87034913  0.50828692    -0.74000
O2205       O  0.88746079  0.74868326  0.53185780    -0.53200
O2206       O  0.94045349  0.78039431  0.96950061    -0.97900
O2207       O  0.92135053  0.84209793  0.89615890    -0.55100
O2208       O  0.93823052  0.86839911  0.45727732    -0.74500
C2209       C  0.95009858  0.86917151  0.48438868     0.97900
O2210       O  0.88038618  0.92406933  0.54947414    -0.63300
O2211       O  0.76154691  0.92102770  0.92180013    -0.58100
O2212       O  0.85589983  0.94517495  0.50535424    -0.94800
O2213       O  0.83826016  0.95100043  0.95622799    -0.93200
O2214       O  0.71069956  0.88166801  0.96615978    -0.93600
O2215       O  0.73116592  0.89640837  0.52579581    -0.92300
C2216       C  0.84960906  0.96441750  0.98184292     1.16700
H2217       H  0.75068751  0.85226464  0.92651969     0.32700
H2218       H  0.79731416  0.84124104  0.54303147     0.43500
H2219       H  0.89149464  0.90244324  0.95252062     0.37000
H2220       H  0.86465739  0.75692032  0.95428088     0.33500
H2221       H  0.70002023  0.82805618  0.54098531     0.25300
H2222       H  0.89631126  0.76369394  0.54901909     0.31200
H2223       H  0.96434537  0.79147301  0.96403531     0.37200
H2224       H  0.69022229  0.86414442  0.96414844     0.31600
H2225       H  0.76566163  0.94758871  0.92481099     0.30500
H2226       H  0.81924676  0.95176668  0.88667051     0.32200
H2227       H  0.94788060  0.84389435  0.89895922     0.31100
H2228       H  0.73729974  0.91904248  0.51363298     0.35100
H2229       H  0.86022087  0.92710715  0.56454007     0.27900
H2230       H  0.75993285  0.77185381  0.87495123     0.32100
H2231       H  0.89078492  0.76835336  0.89989991     0.33800
H2232       H  0.75852354  0.91882285  0.89920115     0.27600
H2233       H  0.89957491  0.91180829  0.56150027     0.40400
H2234       H  0.77036750  0.74312269  0.54065187     0.30500
H2235       H  0.73443136  0.80587353  0.54989146     0.38100
H2236       H  0.91360218  0.86782743  0.89364827     0.30000
H2237       H  0.87847328  0.72560044  0.54211502     0.30000
H2238       H  0.79165642  0.74374311  0.87816877     0.30300
Zr2239     Zr  0.80177181  0.78437306  0.68422871     2.17500
O2240       O  0.79013357  0.74209045  0.64251019    -0.52100
O2241       O  0.73606817  0.77147934  0.68657943    -0.75300
O2242       O  0.81553429  0.72136807  0.70091067    -0.82100
O2243       O  0.83386288  0.86307749  0.62800453    -0.83800
O2244       O  0.83077546  0.72030937  0.75178149    -0.79400
O2245       O  0.82007407  0.80193228  0.63034723    -0.91100
O2246       O  0.71863686  0.79185059  0.73332723    -0.77000
O2247       O  0.78381717  0.78731005  0.73743508    -0.86500
O2248       O  0.77490788  0.84366971  0.68858478    -0.86200
O2249       O  0.85595584  0.77757277  0.71432074    -0.73000
O2250       O  0.84719555  0.83007954  0.67309603    -0.85100
Zr2251     Zr  0.86175195  0.88213725  0.76197912     2.26400
Zr2252     Zr  0.83739771  0.78255232  0.76787580     2.06300
Zr2253     Zr  0.82234705  0.88898408  0.67986149     2.10000
Zr2254     Zr  0.75811083  0.84608476  0.74172928     1.78800
O2255       O  0.85210550  0.93160135  0.64251777    -0.93900
O2256       O  0.72775266  0.82926402  0.79102534    -0.41700
O2257       O  0.80905811  0.88375932  0.73177362    -0.78300
O2258       O  0.81042901  0.84133215  0.77293477    -0.97000
O2259       O  0.88717016  0.82343731  0.75497186    -0.90300
O2260       O  0.87669497  0.88238859  0.70791239    -0.93200
C2261       C  0.71422141  0.77090121  0.71007936     1.00600
C2262       C  0.83110232  0.83131709  0.61539766     1.13500
C2263       C  0.82503351  0.70464242  0.72610077     1.04300
O2264       O  0.80146494  0.74316645  0.80337233    -0.95300
O2265       O  0.83642333  0.80481225  0.82075676    -0.91100
O2266       O  0.85113873  0.86553721  0.81750988    -0.84200
C2267       C  0.84089378  0.83633864  0.83299154     1.10900
O2268       O  0.92618246  0.77444155  0.66868786    -0.97300
Zr2269     Zr  0.90108597  0.82239026  0.70045605     1.88900
O2270       O  0.93057701  0.87558653  0.76052648    -0.74000
O2271       O  0.89301433  0.75717244  0.78821430    -0.53200
O2272       O  0.94599832  0.78814446  0.72948712    -0.97900
O2273       O  0.92851435  0.83814208  0.64991302    -0.55100
O2274       O  0.94079440  0.87144101  0.70992582    -0.74500
C2275       C  0.95265232  0.87351285  0.73690862     0.97900
O2276       O  0.87964381  0.93122408  0.79659951    -0.63300
O2277       O  0.76619295  0.91523881  0.66116143    -0.58100
O2278       O  0.85452277  0.94726265  0.75265624    -0.94800
O2279       O  0.83263298  0.94923592  0.70379124    -0.93200
O2280       O  0.71027521  0.87587812  0.71248709    -0.93600
O2281       O  0.73287914  0.89682749  0.77001938    -0.92300
C2282       C  0.84314118  0.96480006  0.72888988     1.16700
H2283       H  0.75484411  0.84645985  0.67460158     0.32700
H2284       H  0.79853131  0.84549754  0.79247962     0.43500
H2285       H  0.89115838  0.90377760  0.70175687     0.37000
H2286       H  0.86869438  0.75518955  0.71081248     0.33500
H2287       H  0.70190136  0.82552312  0.78599784     0.25300
H2288       H  0.88471368  0.73801674  0.80354582     0.31200
H2289       H  0.96898868  0.79239799  0.71779086     0.37200
H2290       H  0.68787304  0.87111175  0.72504807     0.31600
H2291       H  0.76576068  0.94009588  0.66972966     0.30500
H2292       H  0.83391671  0.95046586  0.63778116     0.32200
H2293       H  0.93435771  0.86470308  0.65048651     0.31100
H2294       H  0.75287348  0.90506312  0.78330341     0.35100
H2295       H  0.85955980  0.93379911  0.81189673     0.27900
H2296       H  0.77336233  0.72310066  0.65153569     0.32100
H2297       H  0.90497005  0.76340274  0.65853266     0.35000
H2298       H  0.77040543  0.91944774  0.63858740     0.27600
H2299       H  0.89983869  0.92118790  0.80878252     0.40400
H2300       H  0.77601182  0.74848628  0.79827388     0.30500
H2301       H  0.73642856  0.80434997  0.79643584     0.38100
H2302       H  0.90844853  0.83655270  0.63508603     0.30000
H2303       H  0.90331639  0.74333164  0.77087701     0.30000
H2304       H  0.81320255  0.72911522  0.63922100     0.30300
Zr2305     Zr  0.58023842  0.58898452  0.91463264     2.17500
O2306       O  0.54056910  0.56166250  0.87609486    -0.52100
O2307       O  0.57611076  0.52030392  0.92652575    -0.75300
O2308       O  0.59873674  0.60007808  0.85958373    -0.82100
O2309       O  0.51053217  0.61104409  0.96888940    -0.83800
O2310       O  0.65574354  0.62422236  0.85822493    -0.79400
O2311       O  0.51511080  0.59659599  0.91834762    -0.91100
O2312       O  0.63067600  0.50508498  0.94412442    -0.77000
O2313       O  0.64083130  0.56917319  0.92265658    -0.86500
O2314       O  0.58150571  0.57175356  0.96849366    -0.86200
O2315       O  0.61700857  0.64418810  0.90489800    -0.73000
O2316       O  0.57241445  0.64159513  0.94425553    -0.85100
Zr2317     Zr  0.66674912  0.65871182  0.99609333     2.26400
Zr2318     Zr  0.67781520  0.62283920  0.91156716     2.06300
Zr2319     Zr  0.56709514  0.62585566  0.99584218     2.10000
Zr2320     Zr  0.64272665  0.55398832  0.97712525     1.78800
O2321       O  0.53489653  0.67927698  0.01391539    -0.93900
O2322       O  0.70019103  0.52250954  0.97182375    -0.41700
O2323       O  0.62721146  0.60692786  0.00433624    -0.78300
O2324       O  0.68110367  0.60506485  0.96586702    -0.97000
O2325       O  0.66516226  0.67537444  0.94210797    -0.90300
O2326       O  0.60621356  0.67924792  0.98924150    -0.93200
C2327       C  0.59864418  0.49632866  0.93726929     1.00600
C2328       C  0.49636596  0.60293889  0.94263702     1.13500
C2329       C  0.62616395  0.61494866  0.84495943     1.04300
O2330       O  0.71154627  0.56767925  0.90097231    -0.95300
O2331       O  0.72755417  0.65727569  0.93421914    -0.91100
O2332       O  0.73102455  0.65698629  0.98519330    -0.84200
C2333       C  0.74349794  0.64720300  0.95904981     1.10900
O2334       O  0.55611390  0.71626837  0.90299726    -0.97300
Zr2335     Zr  0.60568201  0.69637926  0.93564771     1.88900
O2336       O  0.67557052  0.72569027  0.99072363    -0.74000
O2337       O  0.72060182  0.64973575  0.87326197    -0.53200
O2338       O  0.61669722  0.73448546  0.88882880    -0.97900
O2339       O  0.57338404  0.74007616  0.96743695    -0.55100
O2340       O  0.65990709  0.73726449  0.94142756    -0.74500
C2341       C  0.67919600  0.74450482  0.96524953     0.97900
O2342       O  0.70026278  0.67576119  0.54091204    -0.63300
O2343       O  0.52341262  0.59329201  0.53239237    -0.58100
O2344       O  0.64872139  0.63520241  0.54832768    -0.94800
O2345       O  0.59071425  0.61304866  0.54891491    -0.93200
O2346       O  0.60689393  0.51167970  0.01028965    -0.93600
O2347       O  0.67213472  0.53979227  0.02602149    -0.92300
C2348       C  0.62123554  0.61934973  0.56223507     1.16700
H2349       H  0.56415746  0.55254546  0.97418546     0.32700
H2350       H  0.70385042  0.59453039  0.97134969     0.43500
H2351       H  0.60095832  0.69842102  0.00363652     0.37000
H2352       H  0.61189978  0.65607615  0.88535502     0.33500
H2353       H  0.69445388  0.49646474  0.97716589     0.25300
H2354       H  0.72355312  0.63144856  0.85685366     0.31200
H2355       H  0.61834578  0.76010281  0.89593274     0.37200
H2356       H  0.59375927  0.52754674  0.02470711     0.31600
H2357       H  0.50081786  0.60754595  0.53124230     0.30500
H2358       H  0.51462130  0.68223815  0.99940268     0.32200
H2359       H  0.55188602  0.74729384  0.95558107     0.31100
H2360       H  0.68364422  0.56325189  0.03188365     0.35100
H2361       H  0.71754522  0.65567539  0.54453273     0.27900
H2362       H  0.55574032  0.54461833  0.86423469     0.32100
H2363       H  0.53494522  0.70165034  0.91073564     0.35000
H2364       H  0.52063778  0.56876456  0.02186006     0.27600
H2365       H  0.71069860  0.69869725  0.03829244     0.40400
H2366       H  0.70267810  0.55976668  0.88062437     0.30500
H2367       H  0.70556372  0.52278597  0.94925241     0.38100
H2368       H  0.58925015  0.76223513  0.96700137     0.30000
H2369       H  0.70802359  0.67058896  0.86324723     0.30000
H2370       H  0.53411060  0.58134997  0.86099257     0.30300
Zr2371     Zr  0.66955247  0.65726849  0.74393437     2.17500
O2372       O  0.70397999  0.67427492  0.78937740    -0.52100
O2373       O  0.68083047  0.72338635  0.73712160    -0.75300
O2374       O  0.73315399  0.64729982  0.73342620    -0.82100
O2375       O  0.59178642  0.62078482  0.79833809    -0.83800
O2376       O  0.72857150  0.64717950  0.68258970    -0.79400
O2377       O  0.65112909  0.63867297  0.79734935    -0.91100
O2378       O  0.66609760  0.73522888  0.68750016    -0.77000
O2379       O  0.66972063  0.66987240  0.68915881    -0.86500
O2380       O  0.61094019  0.68229572  0.73526384    -0.86200
O2381       O  0.67876632  0.60006050  0.71719211    -0.73000
O2382       O  0.62569664  0.61033738  0.75480852    -0.85100
Zr2383     Zr  0.57859259  0.58742999  0.66565473     2.26400
Zr2384     Zr  0.67715785  0.61344789  0.66210688     2.06300
Zr2385     Zr  0.56738209  0.63332701  0.74574541     2.10000
Zr2386     Zr  0.61202019  0.69531018  0.68096992     1.78800
O2387       O  0.52051834  0.61058988  0.78210321    -0.93900
O2388       O  0.62616005  0.72233525  0.62982608    -0.41700
O2389       O  0.56823516  0.64576146  0.69116578    -0.78300
O2390       O  0.61864477  0.63955164  0.65396020    -0.97000
O2391       O  0.63666669  0.56365409  0.67658898    -0.90300
O2392       O  0.57646118  0.57695390  0.72052426    -0.93200
C2393       C  0.68475991  0.74213269  0.71168843     1.00600
C2394       C  0.62263758  0.62547431  0.81166401     1.13500
C2395       C  0.74464241  0.63667800  0.70722695     1.04300
O2396       O  0.72341071  0.62327097  0.62172279    -0.95300
O2397       O  0.65562376  0.61531153  0.60834725    -0.91100
O2398       O  0.59680054  0.59612422  0.61044905    -0.84200
C2399       C  0.62513944  0.60828709  0.59538735     1.10900
O2400       O  0.68521646  0.53379826  0.76457202    -0.97300
Zr2401     Zr  0.63555117  0.55384312  0.73186732     1.88900
O2402       O  0.58012373  0.51841926  0.67467334    -0.74000
O2403       O  0.70201881  0.55214066  0.65966281    -0.53200
O2404       O  0.66655954  0.50113684  0.71095526    -0.97900
O2405       O  0.61682209  0.53688247  0.78485483    -0.55100
O2406       O  0.58829906  0.51146807  0.72584110    -0.74500
C2407       C  0.58119308  0.49827218  0.69991695     0.97900
O2408       O  0.53481289  0.56211096  0.62976136    -0.63300
O2409       O  0.54096984  0.69134740  0.76022294    -0.58100
O2410       O  0.51409083  0.59572755  0.67042650    -0.94800
O2411       O  0.51068017  0.61702271  0.71923036    -0.93200
O2412       O  0.58076584  0.74457923  0.70671806    -0.93600
O2413       O  0.56228155  0.71805906  0.64989471    -0.92300
C2414       C  0.49602614  0.60565510  0.69402603     1.16700
H2415       H  0.60732686  0.70348313  0.74778312     0.32700
H2416       H  0.61412874  0.65096310  0.63418123     0.43500
H2417       H  0.55547756  0.56214346  0.72660703     0.37000
H2418       H  0.70067414  0.58818906  0.72303939     0.33500
H2419       H  0.62913760  0.74890017  0.63323916     0.25300
H2420       H  0.72183020  0.55420545  0.64400839     0.31200
H2421       H  0.65643645  0.47947174  0.72270420     0.37200
H2422       H  0.59975804  0.76350687  0.70970121     0.31600
H2423       H  0.51450802  0.68687823  0.75971324     0.30500
H2424       H  0.51936876  0.62892848  0.79854965     0.32200
H2425       H  0.61402739  0.50985221  0.78510124     0.31100
H2426       H  0.54562359  0.69666075  0.64799117     0.35100
H2427       H  0.53085395  0.58115021  0.61345388     0.27900
H2428       H  0.71876147  0.69594570  0.78271154     0.32100
H2429       H  0.68000063  0.50779047  0.77047294     0.35000
H2430       H  0.54634619  0.69345905  0.78254255     0.27600
H2431       H  0.54768105  0.54229772  0.61906847     0.40400
H2432       H  0.72114530  0.64932291  0.61509857     0.30500
H2433       H  0.65090066  0.71391836  0.62492533     0.38100
H2434       H  0.59173058  0.54582594  0.78679339     0.30000
H2435       H  0.71413427  0.54781486  0.67971109     0.30000
H2436       H  0.72177861  0.65454323  0.79259571     0.30300
Zr2437     Zr  0.12252617  0.18543573  0.94110989     2.17500
O2438       O  0.14001064  0.22241741  0.89509350    -0.52100
O2439       O  0.18625942  0.20588627  0.94801917    -0.75300
O2440       O  0.09906633  0.24672698  0.94912851    -0.82100
O2441       O  0.09135551  0.10446463  0.89036492    -0.83800
O2442       O  0.10772860  0.24758316  0.49998270    -0.79400
O2443       O  0.10457811  0.16564632  0.88888069    -0.91100
O2444       O  0.20550980  0.18107933  0.99338312    -0.77000
O2445       O  0.14184631  0.18326368  0.49371213    -0.86500
O2446       O  0.15148331  0.12759379  0.94870554    -0.86200
O2447       O  0.06705137  0.18752117  0.97198119    -0.73000
O2448       O  0.07871655  0.13783136  0.93408090    -0.85100
Zr2449     Zr  0.06521925  0.08862192  0.52778035     2.26400
Zr2450     Zr  0.08784959  0.18956766  0.52468880     2.06300
Zr2451     Zr  0.10580243  0.08063356  0.94296501     2.10000
Zr2452     Zr  0.16894176  0.12510738  0.50113920     1.78800
O2453       O  0.08494623  0.03586704  0.90605487    -0.93900
O2454       O  0.19833601  0.13485804  0.55048840    -0.41700
O2455       O  0.12069508  0.07996000  0.49684800    -0.78300
O2456       O  0.11608172  0.13114564  0.53287148    -0.97000
O2457       O  0.03914941  0.14656666  0.51639756    -0.90300
O2458       O  0.05152488  0.08416333  0.97346445    -0.93200
C2459       C  0.20875037  0.20413409  0.97057976     1.00600
C2460       C  0.09338643  0.13602129  0.87597673     1.13500
C2461       C  0.09473852  0.26012586  0.47461683     1.04300
O2462       O  0.11406911  0.23349425  0.55976928    -0.95300
O2463       O  0.09173931  0.16950770  0.57916865    -0.91100
O2464       O  0.07871182  0.10831077  0.58089682    -0.84200
C2465       C  0.08855071  0.13835357  0.59378539     1.10900
O2466       O  0.99938288  0.18201919  0.92208727    -0.97300
Zr2467     Zr  0.02379543  0.14134466  0.96199798     1.88900
O2468       O  0.99718583  0.09666937  0.53139206    -0.74000
O2469       O  0.03050505  0.21710052  0.53899949    -0.53200
O2470       O  0.98261025  0.18422613  0.48768618    -0.97900
O2471       O  0.99805240  0.11628257  0.91522495    -0.55100
O2472       O  0.98624803  0.09542034  0.48121201    -0.74500
C2473       C  0.97468568  0.09684235  0.50875439     0.97900
O2474       O  0.04918148  0.04208327  0.56761289    -0.63300
O2475       O  0.16447630  0.05585976  0.92882042    -0.58100
O2476       O  0.06943367  0.02271358  0.51999634    -0.94800
O2477       O  0.09187450  0.02201109  0.96949273    -0.93200
O2478       O  0.21788885  0.10160232  0.97237874    -0.93600
O2479       O  0.19452943  0.07072814  0.52574998    -0.92300
C2480       C  0.07829489  0.00593560  0.49539988     1.16700
H2481       H  0.17180080  0.12554937  0.93453782     0.32700
H2482       H  0.12874586  0.12814471  0.55191931     0.43500
H2483       H  0.03716588  0.06271651  0.96882967     0.37000
H2484       H  0.05144488  0.20726963  0.96632935     0.33500
H2485       H  0.22439852  0.13794033  0.54516234     0.25300
H2486       H  0.01829455  0.19873357  0.55306842     0.31200
H2487       H  0.99266216  0.20932388  0.48434009     0.37200
H2488       H  0.23983267  0.11309899  0.98114890     0.31600
H2489       H  0.16049279  0.02891756  0.92911393     0.30500
H2490       H  0.10561583  0.03266746  0.89154491     0.32200
H2491       H  0.99283880  0.09022156  0.92049542     0.31100
H2492       H  0.18823642  0.05037596  0.51198978     0.35100
H2493       H  0.07100866  0.03874394  0.58026083     0.27900
H2494       H  0.15715896  0.24121348  0.90238278     0.32100
H2495       H  0.02106156  0.19279781  0.91117552     0.35000
H2496       H  0.16785443  0.06269727  0.90662692     0.27600
H2497       H  0.03143239  0.05385923  0.58154419     0.40400
H2498       H  0.14047668  0.22896642  0.55878149     0.30500
H2499       H  0.19064869  0.15949582  0.55665755     0.38100
H2500       H  0.01847880  0.11570974  0.90007407     0.30000
H2501       H  0.03731479  0.23719050  0.55279316     0.30000
H2502       H  0.11812928  0.23638713  0.88955822     0.30300
Zr2503     Zr  0.12917091  0.18626742  0.69145585     2.17500
O2504       O  0.14734422  0.22262235  0.64528310    -0.52100
O2505       O  0.19378183  0.20238396  0.69785842    -0.75300
O2506       O  0.11219234  0.24947465  0.69943930    -0.82100
O2507       O  0.09799896  0.10484189  0.64091172    -0.83800
O2508       O  0.10662404  0.24891514  0.75069822    -0.79400
O2509       O  0.11135384  0.16604984  0.63919329    -0.91100
O2510       O  0.20775929  0.18180717  0.74597066    -0.77000
O2511       O  0.14096487  0.18567446  0.74582920    -0.86500
O2512       O  0.15634774  0.12797243  0.70099583    -0.86200
O2513       O  0.07145126  0.19112213  0.71896087    -0.73000
O2514       O  0.08555181  0.13943574  0.68327719    -0.85100
Zr2515     Zr  0.06243508  0.09046178  0.77496695     2.26400
Zr2516     Zr  0.08421860  0.19080449  0.77368842     2.06300
Zr2517     Zr  0.11038179  0.08161616  0.69376037     2.10000
Zr2518     Zr  0.16817573  0.12788458  0.75491733     1.78800
O2519       O  0.09045647  0.03707558  0.65638603    -0.93900
O2520       O  0.19428118  0.14306929  0.80458134    -0.41700
O2521       O  0.12086286  0.08204845  0.74815056    -0.78300
O2522       O  0.11265639  0.13285395  0.78326978    -0.97000
O2523       O  0.03687876  0.14811637  0.76130559    -0.90300
O2524       O  0.05373598  0.08736630  0.72016180    -0.93200
C2525       C  0.21381881  0.20274533  0.72198822     1.00600
C2526       C  0.10030651  0.13624763  0.62640245     1.13500
C2527       C  0.09736762  0.26147782  0.72406938     1.04300
O2528       O  0.09747474  0.23938571  0.80964797    -0.95300
O2529       O  0.08694784  0.16979437  0.82838634    -0.91100
O2530       O  0.07230920  0.10894153  0.82940031    -0.84200
C2531       C  0.08231023  0.13861445  0.84291107     1.10900
O2532       O  0.01005886  0.19020359  0.66664675    -0.97300
Zr2533     Zr  0.02837619  0.14548123  0.70619341     1.88900
O2534       O  0.99414752  0.09894185  0.77067247    -0.74000
O2535       O  0.02224949  0.20944748  0.78391576    -0.53200
O2536       O  0.97659077  0.18055723  0.72373833    -0.97900
O2537       O  0.00937669  0.11804963  0.65801335    -0.55100
O2538       O  0.98872463  0.09680689  0.71975872    -0.74500
C2539       C  0.97429506  0.09863991  0.74610525     0.97900
O2540       O  0.03761357  0.04485799  0.81228414    -0.63300
O2541       O  0.16902654  0.05598981  0.68085014    -0.58100
O2542       O  0.07053525  0.02451081  0.76895043    -0.94800
O2543       O  0.09475894  0.02341033  0.72035938    -0.93200
O2544       O  0.21733467  0.09808467  0.72748985    -0.93600
O2545       O  0.19327200  0.07759105  0.78551994    -0.92300
C2546       C  0.08219516  0.00734359  0.74538988     1.16700
H2547       H  0.17748421  0.12542430  0.68787020     0.32700
H2548       H  0.12426685  0.12909709  0.80277674     0.43500
H2549       H  0.03998513  0.06566394  0.71504933     0.37000
H2550       H  0.05750541  0.21181934  0.71248130     0.33500
H2551       H  0.22039833  0.14763028  0.80011306     0.25300
H2552       H  0.02410634  0.22826022  0.79995213     0.31200
H2553       H  0.98327089  0.20660662  0.71959384     0.37200
H2554       H  0.23759859  0.11621346  0.72715643     0.31600
H2555       H  0.16405272  0.02944678  0.67874643     0.30500
H2556       H  0.06378507  0.03537196  0.65938742     0.32200
H2557       H  0.01756951  0.09231626  0.65961092     0.31100
H2558       H  0.17283965  0.05996055  0.78894666     0.35100
H2559       H  0.05683970  0.04029434  0.82748681     0.27900
H2560       H  0.16562740  0.24046729  0.65233685     0.32100
H2561       H  0.03307777  0.20081985  0.65811262     0.35000
H2562       H  0.17431179  0.06510402  0.65940858     0.27600
H2563       H  0.01858994  0.05782743  0.82396886     0.40400
H2564       H  0.12357826  0.23705553  0.81391659     0.30500
H2565       H  0.18459976  0.16749308  0.80921519     0.38100
H2566       H  0.02495362  0.12939927  0.64148149     0.30000
H2567       H  0.01504298  0.22305080  0.76498113     0.30000
H2568       H  0.12609565  0.23774297  0.64011738     0.30300
Zr2569     Zr  0.25478974  0.31494401  0.00137979     2.17500
O2570       O  0.21893353  0.29781509  0.54739448    -0.52100
O2571       O  0.24327175  0.24890312  0.99687303    -0.75300
O2572       O  0.19296198  0.32530755  0.98728097    -0.82100
O2573       O  0.33505249  0.35400613  0.55267501    -0.83800
O2574       O  0.19452035  0.32075085  0.93535422    -0.79400
O2575       O  0.27603688  0.33507187  0.55397738    -0.91100
O2576       O  0.25811073  0.23907791  0.94707866    -0.77000
O2577       O  0.25683390  0.29974906  0.94795389    -0.86500
O2578       O  0.31341612  0.28961519  0.99350299    -0.86200
O2579       O  0.24254577  0.37008572  0.97057408    -0.73000
O2580       O  0.29750642  0.36253744  0.00883057    -0.85100
Zr2581     Zr  0.34723001  0.38229858  0.91803981     2.26400
Zr2582     Zr  0.24842567  0.35416688  0.91709785     2.06300
Zr2583     Zr  0.35593007  0.33928359  0.99945391     2.10000
Zr2584     Zr  0.31486337  0.27559620  0.94007120     1.78800
O2585       O  0.39936199  0.37146739  0.53500922    -0.93900
O2586       O  0.30117603  0.24879508  0.89013154    -0.41700
O2587       O  0.35147137  0.32749687  0.94786273    -0.78300
O2588       O  0.30791761  0.32983514  0.90914647    -0.97000
O2589       O  0.28785620  0.40523236  0.92682942    -0.90300
O2590       O  0.34563523  0.39527595  0.97176422    -0.93200
C2591       C  0.23874691  0.23177936  0.97158448     1.00600
C2592       C  0.30449710  0.34893204  0.56686532     1.13500
C2593       C  0.17738605  0.32495673  0.96097955     1.04300
O2594       O  0.20785744  0.33740771  0.87567015    -0.95300
O2595       O  0.26952846  0.35512747  0.86328700    -0.91100
O2596       O  0.32871434  0.37321207  0.86348586    -0.84200
C2597       C  0.30009972  0.36180671  0.84950788     1.10900
O2598       O  0.23492867  0.43352232  0.01486714    -0.97300
Zr2599     Zr  0.28532960  0.41699824  0.98117211     1.88900
O2600       O  0.34595779  0.45194390  0.92296714    -0.74000
O2601       O  0.21512545  0.41093807  0.91143757    -0.53200
O2602       O  0.25238121  0.46544159  0.95448035    -0.97900
O2603       O  0.29982974  0.44163270  0.03150702    -0.55100
O2604       O  0.33019875  0.46189943  0.97258450    -0.74500
C2605       C  0.34132899  0.47345851  0.94627759     0.97900
O2606       O  0.39125789  0.40674046  0.87938000    -0.63300
O2607       O  0.38249280  0.28088577  0.01489012    -0.58100
O2608       O  0.41218886  0.37418660  0.92512671    -0.94800
O2609       O  0.41386753  0.35749562  0.97599646    -0.93200
O2610       O  0.33956478  0.22359227  0.96907242    -0.93600
O2611       O  0.36621315  0.24780965  0.91421739    -0.92300
C2612       C  0.42937112  0.36686452  0.94999578     1.16700
H2613       H  0.31686628  0.26883318  0.00747461     0.32700
H2614       H  0.31249059  0.31848671  0.88967105     0.43500
H2615       H  0.36540210  0.41146134  0.97706067     0.37000
H2616       H  0.21940966  0.38116518  0.97451636     0.33500
H2617       H  0.30044239  0.22197406  0.89421317     0.25300
H2618       H  0.21054598  0.41347433  0.88893829     0.31200
H2619       H  0.25642239  0.48747563  0.96696207     0.37200
H2620       H  0.32210967  0.20313580  0.96597686     0.31600
H2621       H  0.41122941  0.28919029  0.51152386     0.30500
H2622       H  0.41279195  0.35106583  0.54483562     0.32200
H2623       H  0.30128253  0.46858802  0.02811218     0.31100
H2624       H  0.37953649  0.26874535  0.90419464     0.35100
H2625       H  0.39670892  0.38645107  0.86542462     0.27900
H2626       H  0.20098108  0.27980229  0.54005700     0.32100
H2627       H  0.23101784  0.41184278  0.02899420     0.35000
H2628       H  0.37825774  0.27878078  0.03764605     0.27600
H2629       H  0.37792663  0.42475115  0.86640557     0.40400
H2630       H  0.20985719  0.31044706  0.87426175     0.30500
H2631       H  0.27558298  0.25519268  0.88617021     0.38100
H2632       H  0.32511223  0.43424628  0.03518874     0.30000
H2633       H  0.19105587  0.40514056  0.92090895     0.30000
H2634       H  0.20161445  0.31909017  0.05006876     0.30300
Zr2635     Zr  0.35055675  0.38229741  0.66769140     2.17500
O2636       O  0.39482994  0.40443387  0.62833890    -0.52100
O2637       O  0.34818691  0.45236003  0.67068941    -0.75300
O2638       O  0.33080707  0.37084450  0.61348771    -0.82100
O2639       O  0.41677730  0.35309160  0.72405915    -0.83800
O2640       O  0.27129557  0.35387251  0.61342188    -0.79400
O2641       O  0.41574361  0.37437955  0.67427640    -0.91100
O2642       O  0.33358758  0.46284973  0.72038182    -0.77000
O2643       O  0.29107489  0.40467606  0.67633264    -0.86500
O2644       O  0.34931250  0.39708786  0.72118376    -0.86200
O2645       O  0.31197704  0.32876101  0.66025425    -0.73000
O2646       O  0.35481010  0.32895959  0.69952584    -0.85100
Zr2647     Zr  0.25681251  0.31624165  0.75167512     2.26400
Zr2648     Zr  0.25242572  0.35267685  0.66732586     2.06300
Zr2649     Zr  0.35867890  0.34222989  0.75082221     2.10000
Zr2650     Zr  0.28882764  0.41823865  0.73039286     1.78800
O2651       O  0.38704165  0.28685567  0.77111150    -0.93900
O2652       O  0.25286230  0.46717547  0.70741280    -0.41700
O2653       O  0.29949548  0.36412355  0.75874737    -0.78300
O2654       O  0.24655801  0.37087479  0.72014490    -0.97000
O2655       O  0.26103197  0.29915127  0.69896102    -0.90300
O2656       O  0.31654466  0.29198992  0.74575618    -0.93200
C2657       C  0.34360760  0.47429064  0.69374346     1.00600
C2658       C  0.43265381  0.36287316  0.69822272     1.13500
C2659       C  0.30189142  0.35962600  0.59966561     1.04300
O2660       O  0.22220241  0.40695591  0.64723752    -0.95300
O2661       O  0.19225492  0.34071418  0.68695245    -0.91100
O2662       O  0.19387625  0.32783235  0.73872933    -0.84200
C2663       C  0.17702309  0.33538101  0.71356899     1.10900
O2664       O  0.37387232  0.25307032  0.66706213    -0.97300
Zr2665     Zr  0.31991262  0.27581527  0.69282680     1.88900
O2666       O  0.24619755  0.24966651  0.74779580    -0.74000
O2667       O  0.21432988  0.31151659  0.63781954    -0.53200
O2668       O  0.31093679  0.24391459  0.64441123    -0.97900
O2669       O  0.34479777  0.22638517  0.72494450    -0.55100
O2670       O  0.26427500  0.23724796  0.69916712    -0.74500
C2671       C  0.24366086  0.23084695  0.72315047     0.97900
O2672       O  0.21871478  0.29706262  0.79613452    -0.63300
O2673       O  0.39940062  0.37238756  0.78662307    -0.58100
O2674       O  0.27490186  0.33808960  0.80341623    -0.94800
O2675       O  0.33457642  0.35491778  0.80292387    -0.93200
O2676       O  0.30674903  0.43903003  0.78113072    -0.93600
O2677       O  0.23950066  0.43802181  0.76379814    -0.92300
C2678       C  0.30342011  0.35111539  0.81669395     1.16700
H2679       H  0.36927053  0.41326558  0.72606131     0.32700
H2680       H  0.22392167  0.38284450  0.72410876     0.43500
H2681       H  0.32023507  0.27200145  0.76051800     0.37000
H2682       H  0.31606829  0.31711541  0.64084078     0.33500
H2683       H  0.26519224  0.49023296  0.71317669     0.25300
H2684       H  0.20246838  0.32746319  0.62223696     0.31200
H2685       H  0.28820732  0.25380835  0.63596982     0.37200
H2686       H  0.33239270  0.43172877  0.78301885     0.31600
H2687       H  0.42068319  0.35631592  0.78821664     0.30500
H2688       H  0.41102035  0.28652016  0.76053983     0.32200
H2689       H  0.37067067  0.23295253  0.72724845     0.31100
H2690       H  0.23264819  0.41591619  0.77656920     0.35100
H2691       H  0.20320335  0.31832030  0.80028550     0.27900
H2692       H  0.38187852  0.42266487  0.61536767     0.32100
H2693       H  0.38366156  0.27456644  0.65497538     0.35000
H2694       H  0.40852550  0.39471768  0.77535546     0.27600
H2695       H  0.20180876  0.27818781  0.78832604     0.40400
H2696       H  0.20579186  0.41410026  0.66432666     0.30500
H2697       H  0.25693930  0.46584800  0.68478100     0.38100
H2698       H  0.34480036  0.20471752  0.71160085     0.30000
H2699       H  0.23119351  0.29642506  0.62573467     0.30000
H2700       H  0.39917270  0.38367710  0.61454630     0.30300
Zr2701     Zr  0.96078028  0.40641230  0.50087743     2.17500
O2702       O  0.00943523  0.40518366  0.53849406    -0.52100
O2703       O  0.94286169  0.34267072  0.50264467    -0.75300
O2704       O  0.93962863  0.40225779  0.55453109    -0.82100
O2705       O  0.02458034  0.39999414  0.93415895    -0.83800
O2706       O  0.88396536  0.42762751  0.55458857    -0.79400
O2707       O  0.01587387  0.38292501  0.98484488    -0.91100
O2708       O  0.92363786  0.31714572  0.95814610    -0.77000
O2709       O  0.89396871  0.38784635  0.99546890    -0.86500
O2710       O  0.94992898  0.38409965  0.94859775    -0.86200
O2711       O  0.92997773  0.46168829  0.51211545    -0.73000
O2712       O  0.98174585  0.44995235  0.96852455    -0.85100
Zr2713     Zr  0.88067778  0.47763187  0.92046930     2.26400
Zr2714     Zr  0.86764572  0.44586449  0.50209338     2.06300
Zr2715     Zr  0.97185495  0.43319318  0.91602007     2.10000
Zr2716     Zr  0.88704730  0.36985349  0.94304611     1.78800
O2717       O  0.01896406  0.47790892  0.90096570    -0.93900
O2718       O  0.84372070  0.33056617  0.97203693    -0.41700
O2719       O  0.90874119  0.42026545  0.91035506    -0.78300
O2720       O  0.85624936  0.42664499  0.95154249    -0.97000
O2721       O  0.88995428  0.49415956  0.97252155    -0.90300
O2722       O  0.94392052  0.49038255  0.92515779    -0.93200
C2723       C  0.94299902  0.31675924  0.98250939     1.00600
C2724       C  0.03471021  0.38463301  0.95968914     1.13500
C2725       C  0.91070338  0.41265146  0.56832429     1.04300
O2726       O  0.81705916  0.40260430  0.49871203    -0.95300
O2727       O  0.83237704  0.49991091  0.99018101    -0.91100
O2728       O  0.82135525  0.49203476  0.93996794    -0.84200
C2729       C  0.81697223  0.50947081  0.96490605     1.10900
O2730       O  0.00442509  0.51708035  0.51416618    -0.97300
Zr2731     Zr  0.95260488  0.50622879  0.97776810     1.88900
O2732       O  0.88246385  0.54472122  0.92362572    -0.74000
O2733       O  0.82463500  0.46581735  0.54151759    -0.53200
O2734       O  0.94611670  0.54851326  0.52531771    -0.97900
O2735       O  0.99488628  0.54430937  0.94664380    -0.55100
O2736       O  0.91404203  0.55700188  0.96690590    -0.74500
C2737       C  0.89167879  0.56571611  0.94576403     0.97900
O2738       O  0.83779928  0.47965503  0.87811725    -0.63300
O2739       O  0.99343246  0.39248569  0.87604830    -0.58100
O2740       O  0.89716456  0.47782923  0.86588798    -0.94800
O2741       O  0.95034360  0.44743865  0.86404733    -0.93200
O2742       O  0.89696542  0.33753182  0.89511260    -0.93600
O2743       O  0.83214101  0.36187433  0.91332989    -0.92300
C2744       C  0.92345506  0.46343402  0.85109644     1.16700
H2745       H  0.96508331  0.36401378  0.94298917     0.32700
H2746       H  0.83079323  0.42340013  0.94751747     0.43500
H2747       H  0.95196495  0.50938863  0.91050799     0.37000
H2748       H  0.93347884  0.46885906  0.53323523     0.33500
H2749       H  0.84220410  0.30783557  0.96002766     0.25300
H2750       H  0.81697113  0.44349979  0.55364501     0.31200
H2751       H  0.95517734  0.57325405  0.51869599     0.37200
H2752       H  0.91237262  0.35437988  0.88199842     0.31600
H2753       H  0.01903926  0.39986020  0.87210705     0.30500
H2754       H  0.04160581  0.46743779  0.90902972     0.32200
H2755       H  0.01722510  0.52973509  0.94553823     0.31100
H2756       H  0.83263579  0.38268931  0.89803636     0.35100
H2757       H  0.81777159  0.46269241  0.88469982     0.27900
H2758       H  0.00476429  0.38354821  0.55239844     0.32100
H2759       H  0.01184940  0.49159221  0.51884596     0.35000
H2760       H  0.99448807  0.36792993  0.88628847     0.27600
H2761       H  0.82725431  0.50436476  0.87846856     0.40400
H2762       H  0.82064673  0.38475182  0.51599473     0.30500
H2763       H  0.85631277  0.32311997  0.99119354     0.38100
H2764       H  0.00117641  0.56489782  0.96012835     0.30000
H2765       H  0.83892144  0.48065147  0.55601591     0.30000
H2766       H  0.00562958  0.42668429  0.55162909     0.30300
Zr2767     Zr  0.87165227  0.47013323  0.74885306     2.17500
O2768       O  0.82323648  0.47596326  0.78748800    -0.52100
O2769       O  0.87178167  0.53630861  0.74350977    -0.75300
O2770       O  0.89333391  0.47240960  0.80278302    -0.82100
O2771       O  0.81381322  0.47941545  0.67732558    -0.83800
O2772       O  0.95015862  0.44954091  0.80367609    -0.79400
O2773       O  0.81092081  0.47511849  0.72889621    -0.91100
O2774       O  0.90839202  0.55371327  0.70270444    -0.77000
O2775       O  0.93370209  0.48664709  0.73974511    -0.86500
O2776       O  0.87942751  0.48462465  0.69450892    -0.86200
O2777       O  0.90245850  0.41480150  0.76249550    -0.73000
O2778       O  0.84987554  0.41700354  0.72190918    -0.85100
Zr2779     Zr  0.95183058  0.39360477  0.67116642     2.26400
Zr2780     Zr  0.96490185  0.43158060  0.75200593     2.06300
Zr2781     Zr  0.85739670  0.43202510  0.66767754     2.10000
Zr2782     Zr  0.94071179  0.50019117  0.68566346     1.78800
O2783       O  0.80976985  0.38515045  0.67055845    -0.93900
O2784       O  0.98948455  0.53403209  0.70999032    -0.41700
O2785       O  0.91988078  0.44812597  0.65751166    -0.78300
O2786       O  0.97402653  0.44645318  0.69782939    -0.97000
O2787       O  0.94456799  0.38018842  0.72488708    -0.90300
O2788       O  0.88940876  0.37735384  0.67950650    -0.93200
C2789       C  0.88450571  0.56020616  0.72370845     1.00600
C2790       C  0.80411705  0.49213590  0.70340677     1.13500
C2791       C  0.92229900  0.46271752  0.81699239     1.04300
O2792       O  0.01082761  0.47779691  0.76298593    -0.95300
O2793       O  0.02028528  0.40329680  0.73651463    -0.91100
O2794       O  0.01321668  0.38375982  0.68753359    -0.84200
C2795       C  0.03179242  0.38793246  0.71202548     1.10900
O2796       O  0.82556039  0.34933327  0.76036920    -0.97300
Zr2797     Zr  0.88317962  0.36252938  0.73383538     1.88900
O2798       O  0.94365862  0.32802084  0.68069420    -0.74000
O2799       O  0.98739136  0.38598939  0.78899374    -0.53200
O2800       O  0.88640702  0.33438051  0.78557919    -0.97900
O2801       O  0.85006699  0.31482383  0.70694067    -0.55100
O2802       O  0.93182702  0.31855035  0.73074500    -0.74500
C2803       C  0.95180502  0.31338673  0.70681823     0.97900
O2804       O  0.99161293  0.37902937  0.62771339    -0.63300
O2805       O  0.81982890  0.44426610  0.62262912    -0.58100
O2806       O  0.93593141  0.39719043  0.61687434    -0.94800
O2807       O  0.88038184  0.42280741  0.61546565    -0.93200
O2808       O  0.92489923  0.53701115  0.64011154    -0.93600
O2809       O  0.98783576  0.51165096  0.64628430    -0.92300
C2810       C  0.90869358  0.40995123  0.60231830     1.16700
H2811       H  0.86757503  0.50653903  0.68755990     0.32700
H2812       H  0.99923933  0.45154805  0.69296930     0.43500
H2813       H  0.88213142  0.35806335  0.66594696     0.37000
H2814       H  0.89850395  0.40813556  0.78408708     0.33500
H2815       H  0.01216137  0.52265009  0.70266579     0.25300
H2816       H  0.00110396  0.40004456  0.80433017     0.31200
H2817       H  0.91261626  0.33255716  0.78971331     0.37200
H2818       H  0.90694840  0.52176516  0.62932615     0.31600
H2819       H  0.79433703  0.44168446  0.63005044     0.30500
H2820       H  0.78804378  0.39810550  0.67795155     0.32200
H2821       H  0.86731275  0.30451914  0.69184803     0.31100
H2822       H  0.98902484  0.48855000  0.63489280     0.35100
H2823       H  0.01152420  0.39743818  0.62778337     0.27900
H2824       H  0.82932534  0.49811980  0.79921754     0.32100
H2825       H  0.80701098  0.35969880  0.74645805     0.35000
H2826       H  0.82322278  0.47068488  0.61760466     0.27600
H2827       H  0.00291995  0.35537025  0.63338831     0.40400
H2828       H  0.02628205  0.46587928  0.77872834     0.30500
H2829       H  0.98954277  0.55859072  0.69963991     0.38100
H2830       H  0.83162169  0.32722015  0.69430706     0.30000
H2831       H  0.96562510  0.37653256  0.80046872     0.30000
H2832       H  0.82591214  0.45507488  0.80239145     0.30300
C2833       C  0.13822771  0.34326412  0.71496767    -0.06200
C2834       C  0.11928419  0.34452401  0.68704213    -0.33600
C2835       C  0.08534044  0.36012390  0.68541134     0.35600
C2836       C  0.06872599  0.37342047  0.71240834    -0.06600
C2837       C  0.08730340  0.37135468  0.74056864    -0.33500
C2838       C  0.12170202  0.35634990  0.74204270     0.35500
H2839       H  0.13143599  0.33467544  0.66587278     0.15900
O2840       O  0.06884197  0.36203001  0.65720683    -0.61000
H2841       H  0.07523097  0.38140068  0.76168141     0.15900
O2842       O  0.13962392  0.35681252  0.76961132    -0.61100
H2843       H  0.13291064  0.33328078  0.78034261     0.42900
H2844       H  0.07827918  0.38502633  0.64703276     0.42900
C2845       C  0.07031947  0.36707031  0.96021067    -0.06200
C2846       C  0.08644400  0.35614640  0.93237304    -0.33600
C2847       C  0.12023285  0.33956422  0.93223137     0.35600
C2848       C  0.13865870  0.33394273  0.96032389    -0.06600
C2849       C  0.12157695  0.34321219  0.98824986    -0.33500
C2850       C  0.08821953  0.36019727  0.98835700     0.35500
H2851       H  0.07292941  0.36061153  0.91053212     0.15900
O2852       O  0.13550938  0.33060107  0.90435224    -0.61000
H2853       H  0.13487102  0.33915535  0.01024349     0.15900
O2854       O  0.07395370  0.37068923  0.01620142    -0.61100
H2855       H  0.08863039  0.41074741  0.51523458     0.42900
H2856       H  0.12547184  0.30599658  0.89996544     0.42900
C2857       C  0.98854714  0.29854210  0.71129663    -0.06200
C2858       C  0.00387392  0.29881415  0.74099727    -0.33600
C2859       C  0.04033341  0.29014282  0.74544246     0.35600
C2860       C  0.06207448  0.28012750  0.72006194    -0.06600
C2861       C  0.04682344  0.28096806  0.69027061    -0.33500
C2862       C  0.01059407  0.28951084  0.68586900     0.35500
H2863       H  0.98784927  0.30669087  0.76090225     0.15900
O2864       O  0.05398423  0.29024255  0.77480447    -0.61000
H2865       H  0.06256565  0.27330812  0.67013694     0.15900
O2866       O  0.99707662  0.28870213  0.65648878    -0.61100
H2867       H  0.98618327  0.26387763  0.65472870     0.42900
H2868       H  0.05487821  0.31631548  0.78066453     0.42900
C2869       C  0.97901608  0.29901574  0.98173988    -0.06200
C2870       C  0.99389620  0.28932714  0.95304797    -0.33600
C2871       C  0.02993747  0.27862871  0.95019800     0.35600
C2872       C  0.06025258  0.28086305  0.47525780    -0.06600
C2873       C  0.04601699  0.29261657  0.50361223    -0.33500
C2874       C  0.01011870  0.30428040  0.50620426     0.35500
H2875       H  0.97780318  0.29086724  0.93230591     0.15900
O2876       O  0.04223230  0.26824651  0.92162695    -0.61000
H2877       H  0.06245650  0.29174975  0.52416189     0.15900
O2878       O  0.99750266  0.31507878  0.53451690    -0.61100
H2879       H  0.98465628  0.29327773  0.54372096     0.42900
H2880       H  0.04860695  0.29137685  0.91018392     0.42900
C2881       C  0.76718934  0.60338040  0.70714920    -0.06200
C2882       C  0.77896949  0.58941504  0.67890053    -0.33600
C2883       C  0.79065313  0.55323286  0.67713942     0.35600
C2884       C  0.79038374  0.53005075  0.70404907    -0.06600
C2885       C  0.78154393  0.54509969  0.73263898    -0.33500
C2886       C  0.77062615  0.58138011  0.73449134     0.35500
H2887       H  0.77785866  0.60612980  0.65784464     0.15900
O2888       O  0.80261819  0.54120914  0.64897789    -0.61000
H2889       H  0.78301659  0.52874286  0.75388365     0.15900
O2890       O  0.76256637  0.59465759  0.76321396    -0.61100
H2891       H  0.73885553  0.58347468  0.76942997     0.42900
H2892       H  0.78136615  0.52906037  0.63972765     0.42900
C2893       C  0.76735236  0.61490309  0.95976933    -0.06200
C2894       C  0.77299002  0.59712826  0.98870431    -0.33600
C2895       C  0.78709852  0.56206926  0.99068215     0.35600
C2896       C  0.79721167  0.54420938  0.96351100    -0.06600
C2897       C  0.79256493  0.56216670  0.93463491    -0.33500
C2898       C  0.77829829  0.59745880  0.93262053     0.35500
H2899       H  0.76491808  0.60967493  0.01014841     0.15900
O2900       O  0.79230030  0.54631962  0.51864507    -0.61000
H2901       H  0.80087131  0.54931011  0.91342298     0.15900
O2902       O  0.77397436  0.61412088  0.90406417    -0.61100
H2903       H  0.79774765  0.61322974  0.89317262     0.42900
H2904       H  0.76964101  0.53200568  0.52291786     0.42900
C2905       C  0.83483351  0.66574123  0.72485192    -0.06200
C2906       C  0.84879496  0.65235357  0.69701629    -0.33600
C2907       C  0.86556546  0.61834381  0.69641631     0.35600
C2908       C  0.86860021  0.59702111  0.72400665    -0.06600
C2909       C  0.85319611  0.60971359  0.75156465    -0.33500
C2910       C  0.83639994  0.64367544  0.75218027     0.35500
H2911       H  0.84811966  0.66890774  0.67580780     0.15900
O2912       O  0.87902884  0.60637110  0.66872506    -0.61000
H2913       H  0.85441216  0.59336154  0.77284956     0.15900
O2914       O  0.82267355  0.65539476  0.77989780    -0.61100
H2915       H  0.79605500  0.65639391  0.77730400     0.42900
H2916       H  0.85804140  0.59510842  0.65827996     0.42900
C2917       C  0.83836767  0.66841878  0.95741713    -0.06200
C2918       C  0.84532645  0.64510653  0.98288140    -0.33600
C2919       C  0.86282436  0.61199187  0.97906410     0.35600
C2920       C  0.87371222  0.60117094  0.94924375    -0.06600
C2921       C  0.86668846  0.62406044  0.92355026    -0.33500
C2922       C  0.84953675  0.65772599  0.92742819     0.35500
H2923       H  0.83614369  0.65469335  0.50672465     0.15900
O2924       O  0.86748671  0.58941745  0.00461762    -0.61000
H2925       H  0.87517672  0.61621028  0.90055280     0.15900
O2926       O  0.84594743  0.68071582  0.90201187    -0.61100
H2927       H  0.82134404  0.67566751  0.89422859     0.42900
H2928       H  0.88803339  0.60400449  0.51637981     0.42900
C2929       C  0.42510621  0.81880344  0.67903468    -0.06200
C2930       C  0.41507379  0.81084207  0.71011445    -0.33600
C2931       C  0.38061906  0.79734153  0.71824258     0.35600
C2932       C  0.35509201  0.79051690  0.69503917    -0.06600
C2933       C  0.36418767  0.80091823  0.66421117    -0.33500
C2934       C  0.39877439  0.81487483  0.65607753     0.35500
H2935       H  0.43381870  0.81572143  0.72865288     0.15900
O2936       O  0.37218246  0.79130224  0.74907304    -0.61000
H2937       H  0.34455556  0.79791273  0.64621666     0.15900
O2938       O  0.40685632  0.82321329  0.62554361    -0.61100
H2939       H  0.39805842  0.84849621  0.62189503     0.42900
H2940       H  0.38521689  0.76884939  0.75543238     0.42900
C2941       C  0.28402114  0.85043067  0.71028755    -0.06200
C2942       C  0.29360390  0.86070991  0.67941848    -0.33600
C2943       C  0.32634343  0.87912647  0.67242452     0.35600
C2944       C  0.34981438  0.88746385  0.69654216    -0.06600
C2945       C  0.34084791  0.87558415  0.72705706    -0.33500
C2946       C  0.30851947  0.85719069  0.73402096     0.35500
H2947       H  0.27497469  0.85619144  0.66073084     0.15900
O2948       O  0.33408648  0.89078332  0.64249887    -0.61000
H2949       H  0.35910321  0.88036766  0.74590646     0.15900
O2950       O  0.30071408  0.84719081  0.76430676    -0.61100
H2951       H  0.30928692  0.82167949  0.76681816     0.42900
H2952       H  0.33583700  0.86817606  0.63028343     0.42900
C2953       C  0.43011198  0.80720970  0.92344769    -0.06200
C2954       C  0.40234180  0.81051253  0.90171735    -0.33600
C2955       C  0.36637869  0.80081073  0.90974666     0.35600
C2956       C  0.35751667  0.78791076  0.94020272    -0.06600
C2957       C  0.38461590  0.78899233  0.96261523    -0.33500
C2958       C  0.42056181  0.79681584  0.95437267     0.35500
H2959       H  0.40867547  0.81965849  0.87814527     0.15900
O2960       O  0.34083868  0.80229985  0.88707444    -0.61000
H2961       H  0.37864606  0.78054369  0.98643890     0.15900
O2962       O  0.44594625  0.79492479  0.97718145    -0.61100
H2963       H  0.45384163  0.76908872  0.97786276     0.42900
H2964       H  0.32149827  0.81832415  0.89477626     0.42900
C2965       C  0.35154811  0.87753126  0.95746100    -0.06200
C2966       C  0.34342176  0.86081245  0.48608647    -0.33600
C2967       C  0.30884430  0.84614514  0.49162838     0.35600
C2968       C  0.28388162  0.84408960  0.96804757    -0.06600
C2969       C  0.29174979  0.86311149  0.93987164    -0.33500
C2970       C  0.32525115  0.88007057  0.93457803     0.35500
H2971       H  0.36325712  0.85813606  0.50419602     0.15900
O2972       O  0.30083939  0.82893062  0.51962337    -0.61000
H2973       H  0.27136523  0.86618791  0.92225196     0.15900
O2974       O  0.33122464  0.90085894  0.90793824    -0.61100
H2975       H  0.33557277  0.88310165  0.89140449     0.42900
H2976       H  0.29652242  0.84897716  0.53425817     0.42900
C2977       C  0.60848716  0.17518702  0.71629099    -0.06200
C2978       C  0.59464082  0.15833014  0.74383263    -0.33600
C2979       C  0.57214237  0.12743445  0.74310964     0.35600
C2980       C  0.56283123  0.11284490  0.71455916    -0.06600
C2981       C  0.57587241  0.12995427  0.68693488    -0.33500
C2982       C  0.59865048  0.16074403  0.68758856     0.35500
H2983       H  0.60121169  0.16900422  0.76626743     0.15900
O2984       O  0.55989524  0.11142622  0.77050905    -0.61000
H2985       H  0.56918700  0.11883844  0.66467072     0.15900
O2986       O  0.61022065  0.17685524  0.66004059    -0.61100
H2987       H  0.63279367  0.16422086  0.65438770     0.42900
H2988       H  0.53627860  0.12286753  0.77476199     0.42900
C2989       C  0.55488688  0.09056965  0.98793735    -0.06200
C2990       C  0.59067506  0.09803778  0.99697185    -0.33600
C2991       C  0.60478547  0.13402854  0.99477324     0.35600
C2992       C  0.58334018  0.16219752  0.98251316    -0.06600
C2993       C  0.54690963  0.15526461  0.97647189    -0.33500
C2994       C  0.53240928  0.12011125  0.97967353     0.35500
H2995       H  0.60839522  0.07584823  0.00352076     0.15900
O2996       O  0.64017187  0.14078948  0.00196467    -0.61000
H2997       H  0.52969661  0.17725077  0.96840383     0.15900
O2998       O  0.49671166  0.11466897  0.97246973    -0.61100
H2999       H  0.48370790  0.11236001  0.99265771     0.42900
H3000       H  0.63944647  0.14848260  0.02381690     0.42900
C3001       C  0.63771408  0.04569568  0.69884295    -0.06200
C3002       C  0.64057328  0.05981194  0.72863867    -0.33600
C3003       C  0.65559713  0.09469630  0.73320666     0.35600
C3004       C  0.66933846  0.11573708  0.70766162    -0.06600
C3005       C  0.66706593  0.10102518  0.67783047    -0.33500
C3006       C  0.65182000  0.06641691  0.67336539     0.35500
H3007       H  0.63010141  0.04431901  0.74858193     0.15900
O3008       O  0.65795805  0.10752004  0.76274636    -0.61000
H3009       H  0.67835606  0.11580823  0.65773513     0.15900
O3010       O  0.65107535  0.05314180  0.64394049    -0.61100
H3011       H  0.67192676  0.03630645  0.64266454     0.42900
H3012       H  0.63444339  0.10202077  0.77346013     0.42900
C3013       C  0.67569647  0.10314614  0.91114000    -0.06200
C3014       C  0.68970715  0.06995498  0.90084191    -0.33600
C3015       C  0.66901133  0.03768420  0.90433098     0.35600
C3016       C  0.63441365  0.03929507  0.91798863    -0.06600
C3017       C  0.61841312  0.07330674  0.92256947    -0.33500
C3018       C  0.63889734  0.10546549  0.91854127     0.35500
H3019       H  0.71815124  0.06808634  0.89457749     0.15900
O3020       O  0.68414573  0.00460742  0.89784547    -0.61000
H3021       H  0.59047903  0.07479938  0.93028342     0.15900
O3022       O  0.62421515  0.13859011  0.92537883    -0.61100
H3023       H  0.60761974  0.14435075  0.90810923     0.42900
H3024       H  0.68042018  0.00149990  0.87536687     0.42900
loop_ 
_geom_bond_atom_site_label_1 
_geom_bond_atom_site_label_2 
_geom_bond_distance 
_geom_bond_site_symmetry_2 
_ccdc_geom_bond_type 
Zr1           O2   2.435       .  S
Zr1           O3   2.395       .  S
Zr1           O4   2.497       .  S
Zr1           O7   2.478       .  S
Zr1           O9   2.384       .  S
Zr1          O11   2.400       .  S
Zr1          O12   2.417       .  S
Zr1        O1522   2.405       .  S
O2           H58   0.989       .  S
O2           H66   0.991       .  S
O3           C23   1.272       .  A
O4           C25   1.299       .  A
O5          Zr15   2.466   1_556  S
O5           C24   1.291       .  A
O6          Zr14   2.412       .  S
O6           C25   1.278       .  A
O7         C1536   1.296       .  A
O8        Zr1528   2.433       .  S
O8           C23   1.279       .  A
O9          Zr14   2.370       .  S
O9        Zr1528   2.378       .  S
O10         Zr15   2.378   1_556  S
O10         Zr16   2.350       .  S
O10       Zr1513   2.404       .  S
O10          H45   0.964       .  S
O11         Zr14   2.394       .  S
O11         Zr31   2.398       .  S
O11          H48   0.966       .  S
O12         Zr31   2.402       .  S
O12       Zr1527   2.394       .  S
Zr13         O38   2.437       .  S
Zr13         O32   2.471       .  S
Zr13         O40   2.502       .  S
Zr13         O28   2.544       .  S
Zr13         O19   2.428       .  S
Zr13         O20   2.417   1_554  S
Zr13         O22   2.413       .  S
Zr13       O1533   2.394   1_554  S
Zr14         O33   2.438       .  S
Zr14         O26   2.435       .  S
Zr14         O27   2.382       .  S
Zr14         O21   2.386       .  S
Zr14       O1532   2.405       .  S
Zr15         O17   2.435       .  S
Zr15         O39   2.438       .  S
Zr15         O41   2.407       .  S
Zr15         O19   2.409       .  S
Zr15         O22   2.406       .  S
Zr15       O1524   2.389   1_554  S
Zr16         O42   2.434   1_556  S
Zr16         O43   2.435   1_556  S
Zr16       O1530   2.431       .  S
Zr16       O1520   2.431       .  S
Zr16         O19   2.386   1_556  S
Zr16         O20   2.372       .  S
Zr16       O1521   2.377       .  S
O17          H54   0.991       .  S
O18       Zr1528   2.434       .  S
O18          H63   0.987       .  S
O18        H1561   0.993       .  S
O20       Zr1526   2.406       .  S
O20          H46   0.962       .  S
O21         Zr31   2.382       .  S
O21       Zr1525   2.390       .  S
O22       Zr1543   2.365   1_554  S
O22          H47   0.965       .  S
C23        C1501   1.448       .  S
C24        O1519   1.296       .  A
C24        C1667   1.494       .  S
C25          C91   1.489       .  S
O26          H62   0.989       .  S
O27          C29   1.275       .  A
O28        C1541   1.306   1_554  A
C29        O1540   1.304       .  A
C29         C704   1.489   1_545  S
O30         Zr31   2.441       .  S
O30          H59   0.992       .  S
Zr31         O34   2.434       .  S
Zr31       O1547   2.442       .  S
Zr31       O1548   2.416       .  S
Zr31       O1534   2.369       .  S
O32          C37   1.286       .  A
O33          H50   0.990       .  S
O33          H65   0.991       .  S
O34          H51   0.989       .  S
O35       Zr1543   2.444       .  S
O35          H64   0.989   1_556  S
O35        H1567   0.990   1_556  S
O36       Zr1543   2.427       .  S
O36          C37   1.284   1_556  A
C37         C961   1.483       .  S
O38          H57   0.991       .  S
O38          H61   0.989       .  S
O39          H53   0.991       .  S
O39          H60   0.988       .  S
O40          C44   1.300       .  A
O41          C44   1.281       .  A
O42          H52   0.990       .  S
O43          H56   0.991       .  S
C44         C110   1.487       .  S
H49        O1530   0.991       .  S
H55        O1547   0.991       .  S
Zr67         O68   2.453       .  S
Zr67         O69   2.562       .  S
Zr67         O70   2.502       .  S
Zr67         O73   2.427       .  S
Zr67         O75   2.376       .  S
Zr67         O76   2.387       .  S
Zr67         O77   2.420       .  S
Zr67         O78   2.363       .  S
O68         H124   0.992       .  S
O68         H132   0.990       .  S
O69          C89   1.307       .  A
O70          C91   1.296       .  A
O71         Zr81   2.472       .  S
O71          C90   1.295       .  A
O72         Zr80   2.463       .  S
O72          C91   1.286       .  A
O73          C90   1.275       .  A
O74         Zr82   2.335       .  S
O74          C89   1.262       .  A
O75         Zr80   2.413       .  S
O75         Zr82   2.411       .  S
O76         Zr81   2.395       .  S
O76         Zr82   2.389       .  S
O76         H111   0.968       .  S
O77         Zr80   2.401       .  S
O77         Zr97   2.368       .  S
O77         H114   0.957       .  S
O78         Zr81   2.289       .  S
O78         Zr97   2.351       .  S
Zr79        O104   2.443       .  S
Zr79         O98   2.465       .  S
Zr79        O106   2.481       .  S
Zr79         O94   2.433       .  S
Zr79         O85   2.378       .  S
Zr79         O86   2.439       .  S
Zr79         O87   2.392       .  S
Zr79         O88   2.404       .  S
Zr80         O99   2.445       .  S
Zr80         O92   2.436       .  S
Zr80         O93   2.439       .  S
Zr80         O86   2.420       .  S
Zr80         O87   2.404       .  S
Zr81         O83   2.440       .  S
Zr81        O105   2.446       .  S
Zr81        O107   2.491       .  S
Zr81         O85   2.362       .  S
Zr81         O88   2.424       .  S
Zr82        O108   2.436       .  S
Zr82        O109   2.438       .  S
Zr82         O84   2.439       .  S
Zr82         O85   2.345       .  S
Zr82         O86   2.346       .  S
O83         H120   0.990       .  S
O84         H115   0.991       .  S
O84         H129   0.989       .  S
O86         H112   0.959       .  S
O87         Zr97   2.359       .  S
O88         Zr97   2.375       .  S
O88         H113   0.969       .  S
C89         C770   1.487   1_545  S
C90        C1027   1.487       .  S
O92         H128   0.988       .  S
O93          C95   1.278       .  A
O94          C95   1.279       .  A
C95        C1492   1.489       .  S
O96         Zr97   2.437       .  S
O96         H125   0.991       .  S
Zr97        O100   2.445       .  S
Zr97        O101   2.430       .  S
Zr97        O102   2.515       .  S
O98         C103   1.285       .  A
O99         H116   0.989       .  S
O99         H131   0.991       .  S
O100        H117   0.990       .  S
O101        H121   0.989       .  S
O101        H130   0.991       .  S
O102        C103   1.296       .  A
C103        C221   1.520       .  S
O104        H123   0.992       .  S
O104        H127   0.990       .  S
O105        H119   0.990       .  S
O105        H126   0.990       .  S
O106        C110   1.295       .  A
O107        C110   1.294       .  A
O108        H118   0.991       .  S
O109        H122   0.990       .  S
Zr133      O1646   2.444       .  S
Zr133       O136   2.423       .  S
Zr133      O1647   2.471       .  S
Zr133      O1651   2.451       .  S
Zr133       O141   2.376       .  S
Zr133       O142   2.392       .  S
Zr133       O143   2.422       .  S
Zr133       O144   2.385       .  S
O134      Zr1645   2.444       .  S
O134        H190   0.989       .  S
O134        H198   0.991       .  S
O135      Zr1645   2.464   1_556  S
O135       C1667   1.287       .  A
O136        C157   1.280       .  A
O137      Zr1659   2.477       .  S
O137        C156   1.294       .  A
O138       Zr146   2.451       .  S
O138        C157   1.290       .  A
O139      Zr1645   2.456       .  S
O139        C156   1.290       .  A
O140       Zr148   2.451       .  S
O140        C155   1.284       .  A
O141       Zr146   2.393       .  S
O141       Zr148   2.375       .  S
O142       Zr147   2.409       .  S
O142       Zr148   2.376       .  S
O142        H177   0.963       .  S
O143       Zr146   2.409       .  S
O143       Zr163   2.371       .  S
O143        H180   0.944       .  S
O144       Zr147   2.377       .  S
O144       Zr163   2.358       .  S
Zr145       O170   2.445       .  S
Zr145       O164   2.534       .  S
Zr145       O172   2.438       .  S
Zr145       O160   2.470       .  S
Zr145       O151   2.445       .  S
Zr145       O152   2.433       .  S
Zr145       O153   2.379       .  S
Zr145       O154   2.389       .  S
Zr146       O165   2.437       .  S
Zr146       O158   2.434       .  S
Zr146       O159   2.464       .  S
Zr146       O152   2.403       .  S
Zr146       O153   2.408       .  S
Zr147      O1661   2.438       .  S
Zr147      O1683   2.437       .  S
Zr147       O173   2.473       .  S
Zr147      O1649   2.473       .  S
Zr147       O151   2.383       .  S
Zr147       O154   2.384       .  S
Zr148       O174   2.439       .  S
Zr148       O175   2.437       .  S
Zr148       O150   2.439       .  S
Zr148       O151   2.419       .  S
Zr148       O152   2.382       .  S
O149      Zr1659   2.436       .  S
O149        H186   0.989       .  S
O150        H181   0.990       .  S
O150        H195   0.989       .  S
O152        H178   0.959       .  S
O153       Zr163   2.397       .  S
O154       Zr163   2.402       .  S
O154        H179   0.967       .  S
C155       O1647   1.289       .  A
C155       C1536   1.494       .  S
C156        C227   1.482       .  S
C157       C1480   1.462       .  S
O158        H194   0.991       .  S
O159        C161   1.291       .  A
O160        C161   1.290       .  A
C161        C222   1.486       .  S
O162      Zr1675   2.437   1_554  S
O162       H1703   0.991       .  S
Zr163       O166   2.438       .  S
Zr163      O1674   2.438       .  S
Zr163      O1679   2.440       .  S
Zr163       O168   2.346       .  S
O164        C169   1.296       .  A
O165        H182   0.989       .  S
O165        H197   0.991       .  S
O166        H183   0.990       .  S
O167      Zr1675   2.437   1_554  S
O167       H1699   0.991       .  S
O167       H1708   0.990       .  S
O168        C169   1.260       .  A
C169       C1100   1.481       .  S
O170        H189   0.990       .  S
O170        H193   0.994       .  S
O171      Zr1659   2.436       .  S
O171        H185   0.991       .  S
O171        H192   0.989       .  S
O172        C176   1.281       .  A
O173        C176   1.295       .  A
O174        H184   0.991       .  S
O175        H188   0.990       .  S
C176        C815   1.483       .  S
H187       O1679   0.991       .  S
H191       O1674   0.989       .  S
H196       O1679   0.988       .  S
Zr199       O200   2.440       .  S
Zr199       O201   2.482       .  S
Zr199       O202   2.393       .  S
Zr199       O205   2.485       .  S
Zr199       O207   2.391       .  S
Zr199       O208   2.393       .  S
Zr199       O209   2.447       .  S
Zr199       O210   2.373       .  S
O200        H256   0.990       .  S
O200        H264   0.991       .  S
O201        C221   1.289       .  A
O202        C223   1.277       .  A
O203       Zr213   2.473       .  S
O203        C222   1.294       .  A
O204       Zr212   2.442       .  S
O204        C223   1.282       .  A
O205        C222   1.295       .  A
O206       Zr214   2.501       .  S
O206        C221   1.294       .  A
O207       Zr212   2.403       .  S
O207       Zr214   2.362       .  S
O208       Zr213   2.411       .  S
O208       Zr214   2.378       .  S
O208        H243   0.968       .  S
O209       Zr212   2.398       .  S
O209       Zr229   2.364       .  S
O209        H246   0.965       .  S
O210       Zr213   2.355       .  S
O210       Zr229   2.354       .  S
Zr211       O236   2.453       .  S
Zr211       O230   2.570       .  S
Zr211       O238   2.436       .  S
Zr211       O226   2.484       .  S
Zr211       O218   2.435       .  S
Zr211       O219   2.385       .  S
Zr211       O220   2.382       .  S
Zr211       O217   2.354       .  S
Zr212       O231   2.436       .  S
Zr212       O224   2.436       .  S
Zr212       O225   2.440       .  S
Zr212       O218   2.406       .  S
Zr212       O219   2.400       .  S
Zr213       O215   2.445       .  S
Zr213       O237   2.440       .  S
Zr213       O239   2.452       .  S
Zr213       O220   2.387       .  S
Zr213       O217   2.286       .  S
Zr214       O240   2.441       .  S
Zr214       O241   2.434       .  S
Zr214       O216   2.447       .  S
Zr214       O218   2.393       .  S
Zr214       O217   2.344       .  S
O215        H252   0.990       .  S
O216        H247   0.991       .  S
O216        H261   0.989       .  S
O218        H244   0.961       .  S
O219       Zr229   2.390       .  S
O220       Zr229   2.399       .  S
O220        H245   0.966       .  S
C223       C1465   1.470       .  S
O224        H260   0.989       .  S
O225        C227   1.287       .  A
O226        C227   1.291       .  A
O228       Zr229   2.442       .  S
O228        H257   0.990       .  S
Zr229       O232   2.439       .  S
Zr229       O233   2.438       .  S
Zr229       O234   2.339       .  S
O230        C235   1.306       .  A
O231        H248   0.988       .  S
O231        H263   0.990       .  S
O232        H249   0.990       .  S
O233        H253   0.990       .  S
O233        H262   0.991       .  S
O234        C235   1.267       .  A
C235       C1146   1.497       .  S
O236        H255   0.991       .  S
O236        H259   0.991       .  S
O237        H251   0.989       .  S
O237        H258   0.992       .  S
O238        C242   1.278       .  A
O239        C242   1.293       .  A
O240        H250   0.989       .  S
O241        H254   0.989       .  S
C242        C895   1.490       .  S
Zr265       O266   2.441       .  S
Zr265       O267   2.419       .  S
Zr265       O268   2.445       .  S
Zr265       O271   2.431       .  S
Zr265       O273   2.398       .  S
Zr265       O274   2.390       .  S
Zr265       O275   2.406       .  S
Zr265       O276   2.410       .  S
O266        H322   0.989       .  S
O266        H330   0.991       .  S
O267        C287   1.273       .  A
O268        C289   1.286       .  A
O269      Zr1791   2.383       .  S
O269        C288   1.275       .  A
O270       Zr278   2.382       .  S
O270        C289   1.271       .  A
O271        C288   1.285       .  A
O272       Zr280   2.433       .  S
O272        C287   1.277       .  A
O273       Zr278   2.380       .  S
O273       Zr280   2.397       .  S
O274       Zr280   2.392       .  S
O274      Zr1791   2.344       .  S
O274        H309   0.958       .  S
O275       Zr278   2.422       .  S
O275       Zr295   2.384   1_565  S
O275        H312   0.964       .  S
O276       Zr295   2.382   1_565  S
O276      Zr1791   2.388       .  S
Zr277       O302   2.435   1_556  S
Zr277       O296   2.426   1_565  S
Zr277       O304   2.459   1_556  S
Zr277      O1804   2.447       .  S
Zr277       O283   2.393       .  S
Zr277      O1796   2.422       .  S
Zr277      O1797   2.364       .  S
Zr277      O1798   2.384       .  S
Zr278       O297   2.447       .  S
Zr278       O290   2.434       .  S
Zr278       O291   2.391       .  S
Zr278       O284   2.387       .  S
Zr278       O285   2.370       .  S
Zr279       O281   2.434   1_556  S
Zr279       O303   2.442   1_556  S
Zr279       O305   2.355   1_556  S
Zr279      O1781   2.366       .  S
Zr279       O283   2.389       .  S
Zr279      O1786   2.342       .  S
Zr279      O1788   2.387       .  S
Zr279      O1798   2.357       .  S
Zr280       O282   2.439       .  S
Zr280      O1818   2.436       .  S
Zr280      O1819   2.437       .  S
Zr280       O284   2.419       .  S
Zr280      O1795   2.404       .  S
O281        H318   0.990       .  S
O282        H313   0.989       .  S
O282        H327   0.990       .  S
O283      Zr1792   2.407       .  S
O284      Zr1789   2.419       .  S
O284        H310   0.966       .  S
O285       Zr295   2.352   1_565  S
O285      Zr1789   2.358       .  S
O286       Zr295   2.373   1_565  S
O286      Zr1789   2.390       .  S
O286      Zr1791   2.356       .  S
O286       H1823   0.966       .  S
C287       C1441   1.490       .  S
C288       C1453   1.462       .  S
C289        C374   1.448       .  S
O290        H326   0.991       .  S
O291        C293   1.273   1_565  A
O292      Zr1789   2.445       .  S
O292        C293   1.288   1_565  A
C293       C1504   1.446       .  S
O294       Zr295   2.435       .  S
O294        H323   0.991       .  S
Zr295       O298   2.436       .  S
Zr295       O299   2.438       .  S
Zr295       O300   2.411       .  S
O296       C1813   1.283       .  A
O297        H314   0.990       .  S
O297        H329   0.991       .  S
O298        H315   0.990       .  S
O299        H319   0.990       .  S
O299        H328   0.989       .  S
O300        C301   1.282       .  A
C301       O1808   1.284       .  A
C301       C1477   1.475       .  S
O302        H321   0.991       .  S
O302        H325   0.989   1_554  S
O303        H317   0.991       .  S
O303        H324   0.988       .  S
O304        C308   1.292       .  A
O305        C308   1.269       .  A
O306      Zr1792   2.436       .  S
O306        H316   0.990       .  S
O307      Zr1792   2.439       .  S
O307        H320   0.988       .  S
C308        C355   1.454       .  S
H311       O1798   0.966       .  S
Zr331       O332   2.439       .  S
Zr331       O333   2.427       .  S
Zr331       O334   2.444       .  S
Zr331       O337   2.431       .  S
Zr331       O339   2.392       .  S
Zr331       O340   2.390       .  S
Zr331       O341   2.405       .  S
Zr331       O342   2.414       .  S
O332        H388   0.991       .  S
O332        H396   0.989       .  S
O333        C353   1.278       .  A
O334        C355   1.290       .  A
O335       Zr345   2.395       .  S
O335        C354   1.276       .  A
O336       Zr344   2.395       .  S
O336        C355   1.273       .  A
O337        C354   1.284       .  A
O338       Zr346   2.435       .  S
O338        C353   1.283       .  A
O339       Zr344   2.397       .  S
O339       Zr346   2.377       .  S
O340       Zr345   2.365       .  S
O340       Zr346   2.382       .  S
O340        H375   0.963       .  S
O341       Zr344   2.427       .  S
O341       Zr361   2.388   1_565  S
O341        H378   0.965       .  S
O342       Zr345   2.386       .  S
O342       Zr361   2.387   1_565  S
Zr343       O368   2.446       .  S
Zr343       O362   2.436   1_565  S
Zr343       O370   2.430       .  S
Zr343       O358   2.426       .  S
Zr343       O350   2.414       .  S
Zr343       O351   2.378   1_565  S
Zr343       O352   2.386   1_565  S
Zr343       O349   2.280       .  S
Zr344       O363   2.446       .  S
Zr344       O356   2.435       .  S
Zr344       O357   2.424   1_565  S
Zr344       O350   2.397       .  S
Zr344       O351   2.378   1_565  S
Zr345       O347   2.445   1_565  S
Zr345       O369   2.451       .  S
Zr345       O371   2.386       .  S
Zr345       O352   2.364   1_565  S
Zr345       O349   2.297       .  S
Zr346       O372   2.432       .  S
Zr346       O373   2.438       .  S
Zr346       O348   2.453       .  S
Zr346       O350   2.404       .  S
Zr346       O349   2.313       .  S
O347        H384   0.990       .  S
O348        H379   0.991       .  S
O348        H393   0.988       .  S
O350        H376   0.966       .  S
O351       Zr361   2.370       .  S
O352       Zr361   2.389       .  S
O352        H377   0.968       .  S
C353       C1417   1.486       .  S
C354       C1432   1.466       .  S
O356        H392   0.990       .  S
O357        C359   1.279       .  A
O358        C359   1.277   1_565  A
C359       C1489   1.478       .  S
O360       Zr361   2.437       .  S
O360        H389   0.988       .  S
Zr361       O364   2.437       .  S
Zr361       O365   2.438       .  S
Zr361       O366   2.380       .  S
O362        C367   1.282       .  A
O363        H380   0.993       .  S
O363        H395   0.990       .  S
O364        H381   0.992       .  S
O365        H385   0.989       .  S
O365        H394   0.991       .  S
O366        C367   1.275       .  A
C367       C1468   1.463       .  S
O368        H387   0.989       .  S
O368        H391   0.992   1_565  S
O369        H383   0.992       .  S
O369        H390   0.989       .  S
O370        C374   1.286       .  A
O371        C374   1.272       .  A
O372        H382   0.990       .  S
O373        H386   0.989       .  S
Zr397       O398   2.454       .  S
Zr397       O399   2.591       .  S
Zr397       O400   2.500       .  S
Zr397       O403   2.429       .  S
Zr397       O405   2.378       .  S
Zr397       O406   2.379       .  S
Zr397       O407   2.436       .  S
Zr397       O408   2.369       .  S
O398        H454   0.991       .  S
O398        H462   0.992       .  S
O399        C419   1.311       .  A
O400        C421   1.294       .  A
O401       Zr411   2.451       .  S
O401        C420   1.292       .  A
O402       Zr410   2.432       .  S
O402        C421   1.280       .  A
O403        C420   1.276       .  A
O404       Zr412   2.322       .  S
O404        C419   1.256       .  A
O405       Zr410   2.407       .  S
O405       Zr412   2.407       .  S
O406       Zr411   2.372       .  S
O406       Zr412   2.405       .  S
O406        H441   0.967       .  S
O407       Zr410   2.398       .  S
O407       Zr427   2.388       .  S
O407        H444   0.960       .  S
O408       Zr411   2.283       .  S
O408       Zr427   2.345       .  S
Zr409       O434   2.440       .  S
Zr409       O428   2.471       .  S
Zr409       O424   2.464       .  S
Zr409      O1948   2.506       .  S
Zr409       O415   2.373       .  S
Zr409       O416   2.428       .  S
Zr409       O417   2.398       .  S
Zr409       O418   2.403       .  S
Zr410       O429   2.444       .  S
Zr410       O422   2.432       .  S
Zr410       O423   2.419       .  S
Zr410       O416   2.409       .  S
Zr410       O417   2.411       .  S
Zr411       O413   2.437       .  S
Zr411       O435   2.445       .  S
Zr411      O1949   2.469       .  S
Zr411       O415   2.365       .  S
Zr411       O418   2.405       .  S
Zr412       O438   2.435       .  S
Zr412       O439   2.436       .  S
Zr412       O414   2.443       .  S
Zr412       O415   2.343       .  S
Zr412       O416   2.347       .  S
O413        H450   0.991       .  S
O414        H445   0.989       .  S
O414        H459   0.990       .  S
O416        H442   0.956       .  S
O417       Zr427   2.369       .  S
O418       Zr427   2.377       .  S
O418        H443   0.967       .  S
C419        C816   1.494       .  S
C420       C1093   1.483       .  S
C421        C506   1.483       .  S
O422        H458   0.988       .  S
O423        C425   1.272       .  A
O424        C425   1.284       .  A
C425       C1444   1.494       .  S
O426       Zr427   2.441       .  S
O426        H455   0.991       .  S
Zr427       O430   2.447       .  S
Zr427       O431   2.451       .  S
Zr427       O432   2.475       .  S
O428        C433   1.288       .  A
O429        H446   0.992       .  S
O429        H461   0.990       .  S
O430        H447   0.991       .  S
O431        H451   0.988       .  S
O431        H460   0.993       .  S
O432        C433   1.289       .  A
C433        C551   1.501       .  S
O434        H453   0.990       .  S
O434        H457   0.990       .  S
O435        H456   0.994       .  S
O435       H1961   0.988       .  S
O436      Zr1921   2.503   1_554  S
O436        C440   1.300       .  A
O437      Zr1923   2.449   1_554  S
O437        C440   1.288       .  A
O438        H448   0.989       .  S
O439        H452   0.989       .  S
C440        C487   1.487       .  S
H449       O1947   0.990       .  S
Zr463       O464   2.443       .  S
Zr463       O465   2.564       .  S
Zr463       O466   2.498       .  S
Zr463       O469   2.438       .  S
Zr463       O471   2.378       .  S
Zr463       O472   2.392       .  S
Zr463       O473   2.439       .  S
Zr463       O474   2.460       .  S
O464        H520   0.991       .  S
O464        H528   0.990       .  S
O465        C485   1.305       .  A
O466        C487   1.296       .  A
O467       Zr477   2.455       .  S
O467        C486   1.294       .  A
O468       Zr476   2.442       .  S
O468        C487   1.283       .  A
O469        C486   1.277       .  A
O470       Zr478   2.324       .  S
O470        C485   1.255       .  A
O471       Zr476   2.404       .  S
O471       Zr478   2.405       .  S
O472       Zr477   2.379       .  S
O472       Zr478   2.410       .  S
O472        H507   0.966       .  S
O473       Zr476   2.400       .  S
O473       Zr493   2.390       .  S
O473        H510   0.959       .  S
O474       Zr477   2.382       .  S
O474       Zr493   2.429       .  S
Zr475       O500   2.441       .  S
Zr475       O494   2.459       .  S
Zr475       O502   2.493       .  S
Zr475       O490   2.447       .  S
Zr475       O481   2.364       .  S
Zr475       O482   2.440       .  S
Zr475       O483   2.400       .  S
Zr475       O484   2.402       .  S
Zr476       O495   2.445       .  S
Zr476       O488   2.434       .  S
Zr476       O489   2.419       .  S
Zr476       O482   2.420       .  S
Zr476       O483   2.407       .  S
Zr477       O479   2.437       .  S
Zr477       O501   2.438       .  S
Zr477       O503   2.459       .  S
Zr477       O481   2.359       .  S
Zr477       O484   2.408       .  S
Zr478       O504   2.436       .  S
Zr478       O505   2.440       .  S
Zr478       O480   2.446       .  S
Zr478       O481   2.339       .  S
Zr478       O482   2.360       .  S
O479        H516   0.988       .  S
O480        H511   0.990       .  S
O480        H525   0.989       .  S
O482        H508   0.961       .  S
O483       Zr493   2.369       .  S
O484       Zr493   2.377       .  S
O484        H509   0.966       .  S
C485        C902   1.482       .  S
C486       C1145   1.491       .  S
O488        H524   0.991       .  S
O489        C491   1.272       .  A
O490        C491   1.279       .  A
C491       C1420   1.491       .  S
O492       Zr493   2.438       .  S
O492        H521   0.991       .  S
Zr493       O496   2.437       .  S
Zr493       O497   2.439       .  S
Zr493       O498   2.465       .  S
O494        C499   1.285       .  A
O495        H512   0.990       .  S
O495        H527   0.991       .  S
O496        H513   0.991       .  S
O497        H517   0.992       .  S
O497        H526   0.990       .  S
O498        C499   1.287       .  A
C499        C617   1.495       .  S
O500        H519   0.991       .  S
O500        H523   0.989       .  S
O501        H515   0.990       .  S
O501        H522   0.990       .  S
O502        C506   1.299       .  A
O503        C506   1.290       .  A
O504        H514   0.989       .  S
O505        H518   0.989       .  S
Zr529       O530   2.443       .  S
Zr529       O531   2.456       .  S
Zr529       O532   2.408       .  S
Zr529       O535   2.466       .  S
Zr529       O537   2.383       .  S
Zr529       O538   2.388       .  S
Zr529       O539   2.423       .  S
Zr529       O540   2.378       .  S
O530        H586   0.992       .  S
O530        H594   0.989       .  S
O531        C551   1.283       .  A
O532        C553   1.281       .  A
O533       Zr543   2.485       .  S
O533        C552   1.295       .  A
O534       Zr542   2.420       .  S
O534       C2065   1.283   1_554  A
O535        C552   1.290       .  A
O536      Zr2056   2.489       .  S
O536        C551   1.291       .  A
O537      Zr2054   2.393       .  S
O537      Zr2056   2.364       .  S
O538       Zr543   2.402       .  S
O538      Zr2056   2.373       .  S
O538        H573   0.966       .  S
O539       Zr559   2.370       .  S
O539      Zr2054   2.402       .  S
O539        H576   0.965       .  S
O540       Zr543   2.371       .  S
O540       Zr559   2.354       .  S
Zr541       O566   2.453       .  S
Zr541       O560   2.554       .  S
Zr541       O568   2.425       .  S
Zr541       O556   2.467       .  S
Zr541       O548   2.428       .  S
Zr541       O549   2.382       .  S
Zr541      O2062   2.379   1_554  S
Zr541      O2059   2.359   1_554  S
Zr542       O561   2.433       .  S
Zr542       O554   2.435       .  S
Zr542       O555   2.442       .  S
Zr542       O548   2.400       .  S
Zr542       O549   2.403       .  S
Zr542      O2049   2.395   1_554  S
Zr542      O2051   2.406   1_554  S
Zr543       O545   2.447       .  S
Zr543       O567   2.439       .  S
Zr543       O569   2.466       .  S
Zr543       O550   2.378       .  S
Zr543       O547   2.291       .  S
Zr544       O571   2.434   1_556  S
Zr544       O546   2.445   1_556  S
Zr544      O2082   2.441       .  S
Zr544      O2048   2.496       .  S
Zr544       O548   2.385   1_556  S
Zr544      O2049   2.360       .  S
Zr544      O2050   2.372       .  S
Zr544      O2059   2.349       .  S
O545        H582   0.992       .  S
O546        H577   0.991       .  S
O546        H591   0.990       .  S
O547      Zr2053   2.360       .  S
O547      Zr2056   2.348       .  S
O548        H574   0.960       .  S
O549      Zr2071   2.400   1_554  S
O550       Zr559   2.399       .  S
O550      Zr2053   2.381       .  S
O550        H575   0.966       .  S
C552        C623   1.484       .  S
C553       O2046   1.285       .  A
C553       C1456   1.462       .  S
O554        H590   0.990       .  S
O555        C557   1.287       .  A
O556        C557   1.287       .  A
C557        C618   1.477       .  S
O558       Zr559   2.442       .  S
O558        H587   0.988       .  S
Zr559       O563   2.438       .  S
Zr559      O2074   2.439       .  S
Zr559      O2076   2.346       .  S
Zr559      O2061   2.398       .  S
O560        C565   1.302   1_554  A
O561        H578   0.990       .  S
O561        H593   0.990       .  S
O562      Zr2071   2.439       .  S
O562       H2091   0.991       .  S
O563        H583   0.991       .  S
O563        H592   0.989       .  S
O564      Zr2071   2.340       .  S
O564        C565   1.261       .  A
C565        C968   1.486   1_565  S
O566        H585   0.992       .  S
O566        H589   0.991       .  S
O567        H581   0.986       .  S
O567        H588   0.991       .  S
O568       C2084   1.275   1_454  A
O569        C572   1.295   1_455  A
O570      Zr2056   2.442       .  S
O570        H580   0.991       .  S
O571        H584   0.989       .  S
C572       O2080   1.276   1_655  A
C572       C2209   1.486       .  S
H579       O2074   0.987       .  S
Zr595       O596   2.444       .  S
Zr595       O597   2.454       .  S
Zr595       O598   2.402       .  S
Zr595       O601   2.444       .  S
Zr595       O603   2.378       .  S
Zr595       O604   2.385       .  S
Zr595       O605   2.421       .  S
Zr595       O606   2.377       .  S
O596        H652   0.989       .  S
O596        H660   0.990       .  S
O597        C617   1.283       .  A
O598        C619   1.279       .  A
O599       Zr609   2.480       .  S
O599        C618   1.294       .  A
O600       Zr608   2.427       .  S
O600        C619   1.285       .  A
O601        C618   1.287       .  A
O602       Zr610   2.473       .  S
O602        C617   1.288       .  A
O603       Zr608   2.393       .  S
O603       Zr610   2.364       .  S
O604       Zr609   2.408       .  S
O604       Zr610   2.374       .  S
O604        H639   0.965       .  S
O605       Zr608   2.409       .  S
O605       Zr625   2.369       .  S
O605        H642   0.964       .  S
O606       Zr609   2.366       .  S
O606       Zr625   2.350       .  S
Zr607       O632   2.444       .  S
Zr607       O626   2.533       .  S
Zr607       O634   2.430       .  S
Zr607       O622   2.467       .  S
Zr607       O613   2.456       .  S
Zr607       O614   2.430       .  S
Zr607       O615   2.382       .  S
Zr607       O616   2.392       .  S
Zr608       O627   2.435       .  S
Zr608       O620   2.434       .  S
Zr608       O621   2.453       .  S
Zr608       O614   2.403       .  S
Zr608       O615   2.404       .  S
Zr609       O611   2.438       .  S
Zr609       O633   2.439       .  S
Zr609       O635   2.462       .  S
Zr609       O613   2.391       .  S
Zr609       O616   2.381       .  S
Zr610       O636   2.436       .  S
Zr610       O637   2.435       .  S
Zr610       O612   2.438       .  S
Zr610       O613   2.439       .  S
Zr610       O614   2.387       .  S
O611        H648   0.988       .  S
O612        H643   0.990       .  S
O612        H657   0.991       .  S
O614        H640   0.960       .  S
O615       Zr625   2.400       .  S
O616       Zr625   2.391       .  S
O616        H641   0.966       .  S
C619       C1429   1.463       .  S
O620        H656   0.989       .  S
O621        C623   1.289       .  A
O622        C623   1.289       .  A
O624       Zr625   2.436       .  S
O624        H653   0.991       .  S
Zr625       O628   2.435       .  S
Zr625       O629   2.443       .  S
Zr625       O630   2.348       .  S
O626        C631   1.297       .  A
O627        H644   0.988       .  S
O627        H659   0.993       .  S
O628        H645   0.990       .  S
O629        H649   0.990       .  S
O629        H658   0.989       .  S
O630        C631   1.259       .  A
C631       C1034   1.480   1_565  S
O632        H651   0.990       .  S
O632        H655   0.990       .  S
O633        H647   0.987       .  S
O633        H654   0.991       .  S
O634        C638   1.276   1_455  A
O635        C638   1.295   1_455  A
O636        H646   0.991       .  S
O637        H650   0.989       .  S
C638        C763   1.487       .  S
Zr661       O662   2.443       .  S
Zr661       O663   2.476       .  S
Zr661       O664   2.426       .  S
Zr661       O667   2.473       .  S
Zr661       O669   2.382       .  S
Zr661       O670   2.400       .  S
Zr661       O671   2.425       .  S
Zr661       O672   2.374       .  S
O662        H718   0.990       .  S
O662        H726   0.991       .  S
O663        C683   1.288       .  A
O664        C685   1.283       .  A
O665       Zr675   2.486       .  S
O665        C684   1.295       .  A
O666       Zr674   2.447   1_556  S
O666       C2197   1.290       .  A
O667        C684   1.293       .  A
O668      Zr2188   2.486       .  S
O668        C683   1.290       .  A
O669      Zr2186   2.399       .  S
O669      Zr2188   2.372       .  S
O670       Zr675   2.415       .  S
O670      Zr2188   2.373       .  S
O670        H705   0.967       .  S
O671       Zr691   2.365       .  S
O671      Zr2186   2.405       .  S
O671        H708   0.962       .  S
O672       Zr675   2.362       .  S
O672       Zr691   2.341       .  S
Zr673       O698   2.452       .  S
Zr673       O692   2.557       .  S
Zr673       O700   2.444       .  S
Zr673       O688   2.481       .  S
Zr673       O680   2.426       .  S
Zr673       O681   2.381       .  S
Zr673      O2194   2.384   1_554  S
Zr673      O2191   2.360   1_554  S
Zr674       O693   2.435       .  S
Zr674       O686   2.435       .  S
Zr674       O687   2.465       .  S
Zr674       O680   2.403       .  S
Zr674       O681   2.412       .  S
Zr674      O2181   2.402   1_554  S
Zr674      O2183   2.405   1_554  S
Zr675       O677   2.446       .  S
Zr675       O699   2.440       .  S
Zr675       O701   2.466       .  S
Zr675       O682   2.385       .  S
Zr675       O679   2.291       .  S
Zr676       O703   2.435   1_556  S
Zr676       O678   2.448   1_556  S
Zr676      O2214   2.441       .  S
Zr676      O2180   2.485       .  S
Zr676       O680   2.380   1_556  S
Zr676      O2181   2.372       .  S
Zr676      O2182   2.373       .  S
Zr676      O2191   2.348       .  S
O677        H714   0.989       .  S
O678        H709   0.992       .  S
O678        H723   0.990       .  S
O679      Zr2185   2.361       .  S
O679      Zr2188   2.346       .  S
O680        H706   0.959       .  S
O681      Zr2203   2.402   1_554  S
O682       Zr691   2.395       .  S
O682      Zr2185   2.383       .  S
O682        H707   0.967       .  S
C683        C829   1.509       .  S
C684        C755   1.483       .  S
C685       O2178   1.288       .  A
C685       C1405   1.474       .  S
O686        H722   0.989       .  S
O687        C689   1.292       .  A
O688        C689   1.292       .  A
C689        C750   1.492       .  S
O690       Zr691   2.438       .  S
O690        H719   0.991       .  S
Zr691       O694   2.436       .  S
Zr691       O695   2.437       .  S
Zr691      O2208   2.343       .  S
Zr691      O2193   2.405       .  S
O692        C697   1.301   1_554  A
O693        H710   0.992       .  S
O693        H725   0.989       .  S
O694        H711   0.990       .  S
O695        H715   0.990       .  S
O695        H724   0.991       .  S
O696      Zr2203   2.342       .  S
O696        C697   1.257       .  A
C697       C2084   1.485       .  S
O698        H717   0.990       .  S
O698        H721   0.992       .  S
O699        H713   0.989       .  S
O699        H720   0.992       .  S
O700       C2216   1.280   1_554  A
O701        C704   1.294       .  A
O702      Zr2188   2.441       .  S
O702        H712   0.991       .  S
O703        H716   0.986       .  S
C704       O2212   1.278       .  A
Zr727       O728   2.441       .  S
Zr727       O729   2.470       .  S
Zr727       O730   2.460       .  S
Zr727       O733   2.487       .  S
Zr727       O735   2.385       .  S
Zr727       O736   2.405       .  S
Zr727       O737   2.416       .  S
Zr727       O738   2.381       .  S
O728        H784   0.988       .  S
O728        H792   0.991       .  S
O729        C749   1.286       .  A
O730        C751   1.291       .  A
O731       Zr741   2.482       .  S
O731        C750   1.296       .  A
O732       Zr740   2.398       .  S
O732        C751   1.279       .  A
O733        C750   1.295       .  A
O734       Zr742   2.479       .  S
O734        C749   1.289       .  A
O735       Zr740   2.400       .  S
O735       Zr742   2.366       .  S
O736       Zr741   2.408       .  S
O736       Zr742   2.370       .  S
O736        H771   0.968       .  S
O737       Zr740   2.412       .  S
O737       Zr757   2.367       .  S
O737        H774   0.963       .  S
O738       Zr741   2.375       .  S
O738       Zr757   2.346       .  S
Zr739       O764   2.453       .  S
Zr739       O758   2.566       .  S
Zr739       O766   2.413       .  S
Zr739       O754   2.486       .  S
Zr739       O746   2.422       .  S
Zr739       O747   2.373       .  S
Zr739       O748   2.383       .  S
Zr739       O745   2.365       .  S
Zr740       O759   2.435       .  S
Zr740       O752   2.434       .  S
Zr740       O753   2.436       .  S
Zr740       O746   2.393       .  S
Zr740       O747   2.399       .  S
Zr741       O743   2.445       .  S
Zr741       O765   2.439       .  S
Zr741       O767   2.477       .  S
Zr741       O748   2.372       .  S
Zr741       O745   2.288       .  S
Zr742       O768   2.442       .  S
Zr742       O769   2.435       .  S
Zr742       O744   2.448       .  S
Zr742       O746   2.382       .  S
Zr742       O745   2.345       .  S
O743        H780   0.989       .  S
O744        H775   0.990       .  S
O744        H789   0.992       .  S
O746        H772   0.961       .  S
O747       Zr757   2.404       .  S
O748       Zr757   2.407       .  S
O748        H773   0.967       .  S
C749        C881   1.503       .  S
C751       C1393   1.474       .  S
O752        H788   0.990       .  S
O753        C755   1.286       .  A
O754        C755   1.292       .  A
O756       Zr757   2.438       .  S
O756        H785   0.989       .  S
Zr757       O760   2.437       .  S
Zr757       O761   2.440       .  S
Zr757       O762   2.336       .  S
O758        C763   1.303       .  A
O759        H776   0.991       .  S
O759        H791   0.989       .  S
O760        H777   0.990       .  S
O761        H781   0.991       .  S
O761        H790   0.989       .  S
O762        C763   1.254       .  A
O764        H783   0.990       .  S
O764        H787   0.991       .  S
O765        H779   0.990       .  S
O765        H786   0.992       .  S
O766        C770   1.274       .  A
O767        C770   1.298       .  A
O768        H778   0.992       .  S
O769        H782   0.987       .  S
Zr793       O794   2.447       .  S
Zr793       O795   2.526       .  S
Zr793       O796   2.471       .  S
Zr793       O799   2.427       .  S
Zr793       O801   2.390       .  S
Zr793       O802   2.400       .  S
Zr793       O803   2.438       .  S
Zr793       O804   2.445       .  S
O794        H850   0.988       .  S
O794        H858   0.992       .  S
O795        C815   1.295       .  A
O796        C817   1.287       .  A
O797       Zr807   2.475       .  S
O797        C816   1.297       .  A
O798       Zr806   2.455       .  S
O798        C817   1.288       .  A
O799        C816   1.274       .  A
O800       Zr808   2.357       .  S
O800        C815   1.264       .  A
O801       Zr806   2.399       .  S
O801       Zr808   2.402       .  S
O802       Zr807   2.392       .  S
O802       Zr808   2.395       .  S
O802        H837   0.966       .  S
O803       Zr806   2.408       .  S
O803       Zr823   2.396       .  S
O803        H840   0.961       .  S
O804       Zr807   2.384       .  S
O804       Zr823   2.436       .  S
Zr805      O2342   2.443       .  S
Zr805       O824   2.461       .  S
Zr805       O820   2.414       .  S
Zr805      O2344   2.469       .  S
Zr805       O811   2.381       .  S
Zr805       O812   2.441       .  S
Zr805       O813   2.388       .  S
Zr805       O814   2.390       .  S
Zr806       O825   2.443       .  S
Zr806       O818   2.434       .  S
Zr806       O819   2.442       .  S
Zr806       O812   2.417       .  S
Zr806       O813   2.402       .  S
Zr807       O809   2.437       .  S
Zr807      O2343   2.437       .  S
Zr807      O2345   2.476       .  S
Zr807       O811   2.364       .  S
Zr807       O814   2.419       .  S
Zr808       O834   2.437       .  S
Zr808       O835   2.437       .  S
Zr808       O810   2.440       .  S
Zr808       O811   2.354       .  S
Zr808       O812   2.361       .  S
O809        H846   0.990       .  S
O810        H841   0.991       .  S
O810        H855   0.988       .  S
O812        H838   0.957       .  S
O813       Zr823   2.358       .  S
O814       Zr823   2.384       .  S
O814        H839   0.966       .  S
C817        C882   1.486       .  S
O818        H854   0.990       .  S
O819        C821   1.279       .  A
O820        C821   1.274       .  A
C821       C1381   1.483       .  S
O822       Zr823   2.438       .  S
O822        H851   0.991       .  S
Zr823       O826   2.435       .  S
Zr823       O827   2.444       .  S
Zr823       O828   2.486       .  S
O824        C829   1.284       .  A
O825        H842   0.991       .  S
O825        H857   0.990       .  S
O826        H843   0.993       .  S
O827        H847   0.988       .  S
O827        H856   0.989       .  S
O828        C829   1.290       .  A
O830      Zr2317   2.444   1_554  S
O830        H849   0.991       .  S
O830       H2365   0.989       .  S
O831      Zr2319   2.445   1_554  S
O831        H845   0.990       .  S
O831       H2364   0.991       .  S
O832      Zr2317   2.470   1_554  S
O832        C836   1.292       .  A
O833      Zr2319   2.482   1_554  S
O833        C836   1.295       .  A
O834        H844   0.989       .  S
O835        H848   0.991       .  S
C836        C887   1.490       .  S
H852       O2343   0.990       .  S
H853       O2342   0.991       .  S
Zr859       O860   2.443       .  S
Zr859       O861   2.457       .  S
Zr859       O862   2.415       .  S
Zr859       O865   2.464       .  S
Zr859       O867   2.392       .  S
Zr859       O868   2.396       .  S
Zr859       O869   2.439       .  S
Zr859       O870   2.373       .  S
O860        H916   0.990       .  S
O860        H924   0.990       .  S
O861        C881   1.283       .  A
O862        C883   1.273       .  A
O863       Zr873   2.502       .  S
O863        C882   1.299       .  A
O864       Zr872   2.441       .  S
O864        C883   1.279       .  A
O865        C882   1.290       .  A
O866       Zr874   2.490       .  S
O866        C881   1.290       .  A
O867       Zr872   2.409       .  S
O867       Zr874   2.368       .  S
O868       Zr873   2.411       .  S
O868       Zr874   2.376       .  S
O868        H903   0.969       .  S
O869       Zr872   2.416       .  S
O869       Zr889   2.375       .  S
O869        H906   0.958       .  S
O870       Zr873   2.357       .  S
O870       Zr889   2.350       .  S
Zr871       O896   2.453       .  S
Zr871       O890   2.569       .  S
Zr871       O898   2.413       .  S
Zr871       O886   2.489       .  S
Zr871       O878   2.426       .  S
Zr871       O879   2.377       .  S
Zr871       O880   2.387       .  S
Zr871       O877   2.365       .  S
Zr872       O891   2.433       .  S
Zr872       O884   2.435       .  S
Zr872       O885   2.457       .  S
Zr872       O878   2.408       .  S
Zr872       O879   2.404       .  S
Zr873       O875   2.448       .  S
Zr873       O897   2.442       .  S
Zr873       O899   2.471       .  S
Zr873       O880   2.382       .  S
Zr873       O877   2.292       .  S
Zr874       O900   2.443       .  S
Zr874       O901   2.435       .  S
Zr874       O876   2.447       .  S
Zr874       O878   2.384       .  S
Zr874       O877   2.347       .  S
O875        H912   0.993       .  S
O876        H907   0.991       .  S
O876        H921   0.991       .  S
O878        H904   0.958       .  S
O879       Zr889   2.398       .  S
O880       Zr889   2.407       .  S
O880        H905   0.968       .  S
C883       C1369   1.482       .  S
O884        H920   0.990       .  S
O885        C887   1.290       .  A
O886        C887   1.293       .  A
O888       Zr889   2.440       .  S
O888        H917   0.988       .  S
Zr889       O892   2.438       .  S
Zr889       O893   2.439       .  S
Zr889       O894   2.341       .  S
O890        C895   1.304       .  A
O891        H908   0.989       .  S
O891        H923   0.989       .  S
O892        H909   0.988       .  S
O893        H913   0.991       .  S
O893        H922   0.990       .  S
O894        C895   1.259       .  A
O896        H915   0.990       .  S
O896        H919   0.991       .  S
O897        H911   0.990       .  S
O897        H918   0.992       .  S
O898        C902   1.273       .  A
O899        C902   1.297       .  A
O900        H910   0.991       .  S
O901        H914   0.989       .  S
Zr925       O926   2.442       .  S
Zr925       O927   2.494       .  S
Zr925       O928   2.435       .  S
Zr925       O931   2.489       .  S
Zr925       O934   2.395       .  S
Zr925       O935   2.433       .  S
Zr925       O936   2.384       .  S
Zr925      O2445   2.387       .  S
O926        H982   0.989       .  S
O926        H990   0.992       .  S
O927        C947   1.293       .  A
O928       C2461   1.280       .  A
O929       Zr939   2.476       .  S
O929        C948   1.294       .  A
O930       Zr938   2.443       .  S
O930        C949   1.279   1_554  A
O931        C948   1.296       .  A
O932      Zr2452   2.441       .  S
O932        C947   1.283       .  A
O933       Zr938   2.406   1_556  S
O933       Zr940   2.377   1_556  S
O933      Zr2437   2.391       .  S
O934       Zr939   2.405       .  S
O934      Zr2452   2.380       .  S
O934        H969   0.966       .  S
O935       Zr955   2.366       .  S
O935      Zr2450   2.413       .  S
O935        H972   0.958       .  S
O936       Zr939   2.357       .  S
O936       Zr955   2.354       .  S
Zr937       O962   2.441       .  S
Zr937       O956   2.535   1_455  S
Zr937       O964   2.444       .  S
Zr937       O952   2.491       .  S
Zr937       O943   2.457   1_554  S
Zr937       O944   2.425       .  S
Zr937       O945   2.383       .  S
Zr937      O2458   2.413   1_554  S
Zr938       O957   2.438       .  S
Zr938       O950   2.435       .  S
Zr938       O951   2.460       .  S
Zr938       O944   2.407       .  S
Zr938       O945   2.406       .  S
Zr938      O2447   2.415   1_554  S
Zr939       O941   2.437       .  S
Zr939       O963   2.437       .  S
Zr939       O965   2.444       .  S
Zr939       O946   2.390       .  S
Zr939      O2455   2.388       .  S
Zr940       O967   2.436       .  S
Zr940       O942   2.440       .  S
Zr940      O2478   2.437   1_554  S
Zr940      O2444   2.428   1_554  S
Zr940       O943   2.416   1_554  S
Zr940       O944   2.374       .  S
Zr940      O2446   2.381   1_554  S
O941        H978   0.990       .  S
O942        H973   0.989       .  S
O942        H987   0.992       .  S
O943      Zr2451   2.393       .  S
O944        H970   0.958       .  S
O945      Zr2467   2.405   1_554  S
O946       Zr955   2.385       .  S
O946      Zr2449   2.408       .  S
O946        H971   0.967       .  S
C947       C1079   1.495       .  S
C948       C1019   1.493       .  S
C949       O2440   1.281       .  A
C949       C1360   1.496       .  S
O950        H986   0.991       .  S
O951        C953   1.290       .  A
O952        C953   1.295       .  A
C953       C1014   1.489       .  S
O954       Zr955   2.436   1_655  S
O954        H983   0.991   1_655  S
Zr955       O959   2.439   1_455  S
Zr955      O2470   2.433   1_455  S
Zr955      O2472   2.377   1_455  S
Zr955      O2457   2.398       .  S
O956        C961   1.293       .  A
O957        H974   0.990       .  S
O957        H989   0.991       .  S
O958      Zr2467   2.434   1_655  S
O958        H975   0.991       .  S
O959        H979   0.987       .  S
O959        H988   0.992   1_655  S
O960      Zr2467   2.374   1_655  S
O960        C961   1.258   1_556  A
O962        H981   0.991       .  S
O962        H985   0.989       .  S
O963        H977   0.992       .  S
O963        H984   0.987       .  S
O964        C968   1.280   1_554  A
O965       C2480   1.291       .  A
O966      Zr2452   2.440       .  S
O966        H976   0.993       .  S
O967        H980   0.990       .  S
C968       O2477   1.291       .  A
Zr991       O992   2.442       .  S
Zr991       O993   2.473       .  S
Zr991       O994   2.431       .  S
Zr991       O997   2.499       .  S
Zr991       O999   2.397       .  S
Zr991      O1000   2.396       .  S
Zr991      O1001   2.437       .  S
Zr991      O1002   2.364       .  S
O992       H1048   0.988       .  S
O992       H1056   0.993       .  S
O993       C1013   1.288       .  A
O994       C1015   1.279       .  A
O995      Zr1005   2.479       .  S
O995       C1014   1.294       .  A
O996      Zr1004   2.443       .  S
O996       C1015   1.280       .  A
O997       C1014   1.298       .  A
O998      Zr1006   2.447       .  S
O998       C1013   1.283       .  A
O999      Zr1004   2.413       .  S
O999      Zr1006   2.378       .  S
O1000     Zr1005   2.410       .  S
O1000     Zr1006   2.377       .  S
O1000      H1035   0.966       .  S
O1001     Zr1004   2.415       .  S
O1001     Zr1021   2.366       .  S
O1001      H1038   0.958       .  S
O1002     Zr1005   2.342       .  S
O1002     Zr1021   2.338       .  S
Zr1003     O1028   2.442       .  S
Zr1003     O1022   2.555   1_455  S
Zr1003     O1030   2.440       .  S
Zr1003     O1018   2.494       .  S
Zr1003     O1009   2.462       .  S
Zr1003     O1010   2.427       .  S
Zr1003     O1011   2.381       .  S
Zr1003     O1012   2.403       .  S
Zr1004     O1023   2.435       .  S
Zr1004     O1016   2.436       .  S
Zr1004     O1017   2.468       .  S
Zr1004     O1010   2.404       .  S
Zr1004     O1011   2.402       .  S
Zr1005     O1007   2.435       .  S
Zr1005     O1029   2.437       .  S
Zr1005     O1031   2.442       .  S
Zr1005     O1009   2.392       .  S
Zr1005     O1012   2.389       .  S
Zr1006     O1032   2.436       .  S
Zr1006     O1033   2.436       .  S
Zr1006     O1008   2.441       .  S
Zr1006     O1009   2.425       .  S
Zr1006     O1010   2.375       .  S
O1007      H1044   0.990       .  S
O1008      H1039   0.991       .  S
O1008      H1053   0.989       .  S
O1010      H1036   0.958       .  S
O1011     Zr1021   2.409       .  S
O1012     Zr1021   2.397       .  S
O1012      H1037   0.966       .  S
C1013      C1159   1.495       .  S
C1015      C1348   1.492       .  S
O1016      H1052   0.990       .  S
O1017      C1019   1.291       .  A
O1018      C1019   1.295       .  A
O1020     Zr1021   2.440       .  S
O1020      H1049   0.990       .  S
Zr1021     O1024   2.440   1_455  S
Zr1021     O1025   2.442       .  S
Zr1021     O1026   2.343   1_455  S
O1022      C1027   1.299       .  A
O1023      H1040   0.990       .  S
O1023      H1055   0.989       .  S
O1024      H1041   0.990       .  S
O1025      H1045   0.992       .  S
O1025      H1054   0.987       .  S
O1026      C1027   1.252       .  A
O1028      H1047   0.992       .  S
O1028      H1051   0.990       .  S
O1029      H1043   0.990       .  S
O1029      H1050   0.992       .  S
O1030      C1034   1.279       .  A
O1031      C1034   1.290       .  A
O1032      H1042   0.989       .  S
O1033      H1046   0.989       .  S
Zr1057     O2570   2.440       .  S
Zr1057     O1059   2.462       .  S
Zr1057     O1060   2.405       .  S
Zr1057     O2575   2.497       .  S
Zr1057     O1065   2.384       .  S
Zr1057     O1066   2.394       .  S
Zr1057     O1067   2.438       .  S
Zr1057     O1068   2.361       .  S
O1058     Zr2569   2.440       .  S
O1058      H1114   0.991       .  S
O1058      H2634   0.991       .  S
O1059      C1079   1.287       .  A
O1060      C1081   1.281       .  A
O1061     Zr2583   2.453   1_554  S
O1061      C1080   1.287       .  A
O1062     Zr1070   2.425       .  S
O1062      C1081   1.278       .  A
O1063     Zr2569   2.499       .  S
O1063      C1080   1.300       .  A
O1064     Zr1072   2.473       .  S
O1064      C1079   1.288       .  A
O1065     Zr1070   2.384       .  S
O1065     Zr1072   2.354       .  S
O1066     Zr1071   2.405       .  S
O1066     Zr1072   2.382       .  S
O1066      H1101   0.965       .  S
O1067     Zr1070   2.402       .  S
O1067     Zr1087   2.368       .  S
O1067      H1104   0.965       .  S
O1068     Zr1071   2.366       .  S
O1068     Zr1087   2.345       .  S
Zr1069     O1094   2.443       .  S
Zr1069     O1088   2.553       .  S
Zr1069     O1096   2.445       .  S
Zr1069     O1084   2.490       .  S
Zr1069     O1075   2.449       .  S
Zr1069     O1076   2.434       .  S
Zr1069     O1077   2.384       .  S
Zr1069     O1078   2.384       .  S
Zr1070     O1089   2.433       .  S
Zr1070     O1082   2.436       .  S
Zr1070     O1083   2.427       .  S
Zr1070     O1076   2.404       .  S
Zr1070     O1077   2.396       .  S
Zr1071     O1095   2.438       .  S
Zr1071     O2585   2.439       .  S
Zr1071     O1097   2.429       .  S
Zr1071     O2573   2.435       .  S
Zr1071     O1075   2.382       .  S
Zr1071     O1078   2.381       .  S
Zr1072     O1098   2.436       .  S
Zr1072     O1099   2.437       .  S
Zr1072     O1074   2.438       .  S
Zr1072     O1075   2.432       .  S
Zr1072     O1076   2.386       .  S
O1073     Zr2583   2.445   1_554  S
O1073      H1110   0.990       .  S
O1074      H1105   0.989       .  S
O1074      H1119   0.990       .  S
O1076      H1102   0.960       .  S
O1077     Zr1087   2.393       .  S
O1078     Zr1087   2.405       .  S
O1078      H1103   0.967       .  S
C1080      C1147   1.484       .  S
C1081      C1336   1.471       .  S
O1082      H1118   0.991       .  S
O1083      C1085   1.282       .  A
O1084      C1085   1.294       .  A
C1085      C1166   1.481       .  S
O1086     Zr1087   2.438       .  S
O1086      H1115   0.989       .  S
Zr1087     O1090   2.436       .  S
Zr1087     O1091   2.437       .  S
Zr1087     O1092   2.332       .  S
O1088      C1093   1.304       .  A
O1089      H1106   0.993       .  S
O1089      H1121   0.989       .  S
O1090      H1107   0.990       .  S
O1091      H1111   0.989       .  S
O1091      H1120   0.990       .  S
O1092      C1093   1.263       .  A
O1094      H1113   0.991       .  S
O1094      H1117   0.990       .  S
O1095      H1116   0.993       .  S
O1095      H2621   0.989       .  S
O1096      C1100   1.280       .  A
O1097      C1100   1.288       .  A
O1098      H1108   0.992       .  S
O1099      H1112   0.991       .  S
H1109      O2607   0.989       .  S
H1122      O2570   0.993       .  S
Zr1123     O1124   2.451       .  S
Zr1123     O1125   2.577       .  S
Zr1123     O1126   2.515       .  S
Zr1123     O1129   2.458       .  S
Zr1123     O1131   2.384       .  S
Zr1123     O1132   2.385       .  S
Zr1123     O1133   2.433       .  S
Zr1123     O1134   2.358       .  S
O1124      H1180   0.991       .  S
O1124      H1188   0.993       .  S
O1125      C1145   1.308       .  A
O1126      C1147   1.299       .  A
O1127     Zr1137   2.442       .  S
O1127      C1146   1.290       .  A
O1128     Zr1136   2.405       .  S
O1128      C1147   1.278       .  A
O1129      C1146   1.282       .  A
O1130     Zr1138   2.324       .  S
O1130      C1145   1.261       .  A
O1131     Zr1136   2.401       .  S
O1131     Zr1138   2.397       .  S
O1132     Zr1137   2.378       .  S
O1132     Zr1138   2.408       .  S
O1132      H1167   0.966       .  S
O1133     Zr1136   2.396       .  S
O1133     Zr1153   2.384       .  S
O1133      H1170   0.962       .  S
O1134     Zr1137   2.287       .  S
O1134     Zr1153   2.339       .  S
Zr1135     O1160   2.441       .  S
Zr1135     O1154   2.457       .  S
Zr1135     O1162   2.491       .  S
Zr1135     O1150   2.435       .  S
Zr1135     O1141   2.365       .  S
Zr1135     O1142   2.422       .  S
Zr1135     O1143   2.380       .  S
Zr1135     O1144   2.402       .  S
Zr1136     O1155   2.442       .  S
Zr1136     O1148   2.433       .  S
Zr1136     O1149   2.396       .  S
Zr1136     O1142   2.399       .  S
Zr1136     O1143   2.376       .  S
Zr1137     O1139   2.438       .  S
Zr1137     O1161   2.447       .  S
Zr1137     O1163   2.457       .  S
Zr1137     O1141   2.366       .  S
Zr1137     O1144   2.405       .  S
Zr1138     O1164   2.435       .  S
Zr1138     O1165   2.437       .  S
Zr1138     O1140   2.440       .  S
Zr1138     O1141   2.340       .  S
Zr1138     O1142   2.364       .  S
O1139      H1176   0.991       .  S
O1140      H1171   0.990       .  S
O1140      H1185   0.990       .  S
O1142      H1168   0.965       .  S
O1143     Zr1153   2.357       .  S
O1144     Zr1153   2.377       .  S
O1144      H1169   0.968       .  S
O1148      H1184   0.990       .  S
O1149      C1151   1.279       .  A
O1150      C1151   1.285       .  A
C1151      C1321   1.470       .  S
O1152     Zr1153   2.435       .  S
O1152      H1181   0.988       .  S
Zr1153     O1156   2.443       .  S
Zr1153     O1157   2.442       .  S
Zr1153     O1158   2.485       .  S
O1154      C1159   1.285       .  A
O1155      H1172   0.989       .  S
O1155      H1187   0.990       .  S
O1156      H1173   0.990       .  S
O1157      H1177   0.990       .  S
O1157      H1186   0.990       .  S
O1158      C1159   1.290       .  A
O1160      H1179   0.992       .  S
O1160      H1183   0.990       .  S
O1161      H1175   0.991       .  S
O1161      H1182   0.990       .  S
O1162      C1166   1.297       .  A
O1163      C1166   1.289       .  A
O1164      H1174   0.991       .  S
O1165      H1178   0.991       .  S
Zr1189     O1190   2.443   1_655  S
Zr1189     O1191   2.413       .  S
Zr1189     O1192   2.427       .  S
Zr1189     O2707   2.399   1_654  S
Zr1189     O1199   2.399       .  S
Zr1189     O2709   2.383   1_554  S
Zr1189     O2710   2.399   1_554  S
Zr1189     O2712   2.407   1_554  S
O1190      H1246   0.993   1_455  S
O1190      H1254   0.989       .  S
O1191      C2723   1.270   1_554  A
O1192      C1213   1.281       .  A
O1193     Zr1203   2.436   1_455  S
O1193      C1212   1.286       .  A
O1194     Zr1202   2.418       .  S
O1194      C1213   1.280       .  A
O1195     Zr2701   2.389   1_455  S
O1195      C1212   1.279       .  A
O1196     Zr1204   2.446       .  S
O1196      C1211   1.282       .  A
O1197     Zr1204   2.389       .  S
O1197     Zr2701   2.381       .  S
O1197     Zr2714   2.382       .  S
O1198     Zr1203   2.372       .  S
O1198     Zr1204   2.384       .  S
O1198     Zr2701   2.401       .  S
O1198      H1233   0.964       .  S
O1199     Zr1202   2.419       .  S
O1199     Zr2731   2.395   1_554  S
O1199      H1236   0.965       .  S
O1200     Zr1203   2.396       .  S
O1200     Zr1219   2.368       .  S
O1200     Zr2701   2.405       .  S
Zr1201     O1226   2.440       .  S
Zr1201     O1220   2.443       .  S
Zr1201     O1228   2.425       .  S
Zr1201     O1216   2.410       .  S
Zr1201     O1207   2.398       .  S
Zr1201     O1208   2.418       .  S
Zr1201     O1209   2.374       .  S
Zr1201     O1210   2.389       .  S
Zr1202     O1221   2.443       .  S
Zr1202     O1214   2.436       .  S
Zr1202     O2727   2.425   1_554  S
Zr1202     O2709   2.384   1_554  S
Zr1202     O2720   2.395   1_554  S
Zr1202     O2721   2.376   1_554  S
Zr1203     O1205   2.435   1_655  S
Zr1203     O1227   2.440   1_655  S
Zr1203     O1229   2.443       .  S
Zr1203     O1207   2.392       .  S
Zr1203     O1210   2.381       .  S
Zr1204     O1230   2.434       .  S
Zr1204     O1231   2.435       .  S
Zr1204     O1206   2.438       .  S
Zr1204     O1207   2.408       .  S
Zr1204     O1208   2.413       .  S
O1205      H1242   0.991       .  S
O1206      H1237   0.989       .  S
O1206      H1251   0.989       .  S
O1208     Zr2714   2.405       .  S
O1208      H1234   0.964       .  S
O1209     Zr1219   2.363       .  S
O1209     Zr2714   2.379       .  S
O1210     Zr1219   2.387       .  S
O1210      H1235   0.967       .  S
C1211      O2703   1.269       .  A
C1211      C1357   1.488       .  S
C1212      C1333   1.462       .  S
C1213      C1298   1.459       .  S
O1214      H1250   0.989       .  S
O1215     Zr2714   2.425       .  S
O1215      C1217   1.281       .  A
O1216      C1217   1.275       .  A
C1217      C1384   1.475       .  S
O1218     Zr2731   2.437   1_454  S
O1218      H1247   0.992       .  S
Zr1219     O1223   2.437       .  S
Zr1219     O2730   2.437   1_655  S
Zr1219     O2734   2.435       .  S
Zr1219     O1224   2.385       .  S
Zr1219     O2711   2.394       .  S
O1220      C1225   1.285       .  A
O1221      H1238   0.992       .  S
O1221      H1253   0.990       .  S
O1222     Zr2731   2.436   1_554  S
O1222      H1239   0.992       .  S
O1223      H1243   0.990   1_655  S
O1223      H1252   0.990       .  S
O1224      C1225   1.276       .  A
C1225      C1408   1.467       .  S
O1226      H1245   0.990       .  S
O1226      H1249   0.991       .  S
O1227      H1241   0.991       .  S
O1227      H1248   0.990       .  S
O1228      C1232   1.281       .  A
O1229      C1232   1.288       .  A
O1230      H1240   0.992       .  S
O1231      H1244   0.991       .  S
C1232      C1279   1.475       .  S
Zr1255     O1256   2.441       .  S
Zr1255     O1257   2.416       .  S
Zr1255     O1258   2.468       .  S
Zr1255     O1261   2.423       .  S
Zr1255     O1263   2.381       .  S
Zr1255     O1264   2.397       .  S
Zr1255     O1265   2.398       .  S
Zr1255     O1266   2.417       .  S
O1256      H1312   0.990       .  S
O1256      H1320   0.990       .  S
O1257      C1277   1.282       .  A
O1258      C1279   1.290       .  A
O1259     Zr1269   2.417       .  S
O1259      C1278   1.277       .  A
O1260     Zr1268   2.407       .  S
O1260      C1279   1.279       .  A
O1261      C1278   1.278       .  A
O1262     Zr1270   2.433       .  S
O1262      C1277   1.285       .  A
O1263     Zr1268   2.378       .  S
O1263     Zr1270   2.381       .  S
O1264     Zr1269   2.402       .  S
O1264     Zr1270   2.350       .  S
O1264      H1299   0.961       .  S
O1265     Zr1268   2.410       .  S
O1265     Zr1285   2.408       .  S
O1265      H1302   0.963       .  S
O1266     Zr1269   2.396       .  S
O1266     Zr1285   2.401       .  S
Zr1267     O1292   2.440       .  S
Zr1267     O1286   2.428       .  S
Zr1267     O1294   2.419       .  S
Zr1267     O1282   2.410   1_655  S
Zr1267     O1273   2.392       .  S
Zr1267     O1274   2.414       .  S
Zr1267     O1275   2.367       .  S
Zr1267     O1276   2.391       .  S
Zr1268     O1287   2.439       .  S
Zr1268     O1280   2.433   1_655  S
Zr1268     O1281   2.409   1_655  S
Zr1268     O1274   2.402       .  S
Zr1268     O1275   2.362       .  S
Zr1269     O1271   2.433       .  S
Zr1269     O1293   2.442       .  S
Zr1269     O1295   2.414       .  S
Zr1269     O1273   2.403       .  S
Zr1269     O1276   2.384       .  S
Zr1270     O1296   2.436       .  S
Zr1270     O1297   2.438       .  S
Zr1270     O1272   2.437       .  S
Zr1270     O1273   2.402       .  S
Zr1270     O1274   2.391       .  S
O1271      H1308   0.990       .  S
O1272      H1303   0.988   1_655  S
O1272      H1317   0.991       .  S
O1274      H1300   0.966   1_655  S
O1275     Zr1285   2.369       .  S
O1276     Zr1285   2.395       .  S
O1276      H1301   0.966       .  S
C1277      C1396   1.475       .  S
C1278      C1372   1.479       .  S
O1280      H1316   0.987       .  S
O1281      C1283   1.281       .  A
O1282      C1283   1.279       .  A
C1283      C1324   1.472       .  S
O1284     Zr1285   2.436       .  S
O1284      H1313   0.991       .  S
Zr1285     O1288   2.436       .  S
Zr1285     O1289   2.442       .  S
Zr1285     O1290   2.434       .  S
O1286      C1291   1.277       .  A
O1287      H1304   0.990   1_655  S
O1287      H1319   0.991       .  S
O1288      H1305   0.990       .  S
O1289      H1309   0.990       .  S
O1289      H1318   0.988       .  S
O1290      C1291   1.281       .  A
C1291      C1345   1.484       .  S
O1292      H1311   0.989   1_655  S
O1292      H1315   0.992   1_655  S
O1293      H1307   0.990       .  S
O1293      H1314   0.990       .  S
O1294      C1298   1.281       .  A
O1295      C1298   1.280       .  A
O1296      H1306   0.990       .  S
O1297      H1310   0.989       .  S
C1321      C1322   1.405       .  A
C1321      C1326   1.410       .  A
C1322      C1323   1.388       .  A
C1322      H1327   1.084       .  S
C1323      C1324   1.410       .  A
C1323      O1328   1.371       .  S
C1324      C1325   1.404       .  A
C1325      C1326   1.393       .  A
C1325      H1329   1.083       .  S
C1326      O1330   1.371       .  S
O1328      H1332   0.993       .  S
O1330      H1331   0.993       .  S
C1333      C1334   1.400       .  A
C1333      C1338   1.407       .  A
C1334      C1335   1.394       .  A
C1334      H1339   1.084       .  S
C1335      C1336   1.412       .  A
C1335      O1340   1.370       .  S
C1336      C1337   1.405       .  A
C1337      C1338   1.386       .  A
C1337      H1341   1.083       .  S
C1338      O1342   1.372       .  S
O1340      H1344   0.991       .  S
O1342      H2855   0.992       .  S
H1343      O2854   0.992       .  S
C1345      C1346   1.409   1_655  A
C1345      C1350   1.406   1_655  A
C1346      C1347   1.404       .  A
C1346      H1351   1.083   1_455  S
C1347      C1348   1.407       .  A
C1347      O1352   1.373       .  S
C1348      C1349   1.413       .  A
C1349      C1350   1.396       .  A
C1349      H1353   1.083       .  S
C1350      O1354   1.372   1_455  S
O1352      H1356   0.992       .  S
O1354      H1355   0.993       .  S
C1357      C1358   1.402   1_655  A
C1357      C2874   1.414   1_655  A
C1358      C1359   1.396       .  A
C1358      H1363   1.083   1_455  S
C1359      C2872   1.418       .  A
C1359      O1364   1.372       .  S
C1360      C1361   1.405   1_556  A
C1360      C2871   1.419       .  A
C1361      C1362   1.404       .  A
C1361      H1365   1.083       .  S
C1362      C2869   1.412   1_454  A
C1362      O1366   1.371   1_455  S
O1364      H1368   0.990       .  S
O1366      H1367   0.992       .  S
C1369      C1370   1.400       .  A
C1369      C1374   1.418       .  A
C1370      C1371   1.398       .  A
C1370      H1375   1.083       .  S
C1371      C1372   1.417       .  A
C1371      O1376   1.372       .  S
C1372      C1373   1.399       .  A
C1373      C1374   1.392       .  A
C1373      H1377   1.083       .  S
C1374      O1378   1.373       .  S
O1376      H1380   0.992       .  S
O1378      H1379   0.992       .  S
C1381      C1382   1.411       .  A
C1381      C1386   1.405       .  A
C1382      C1383   1.390       .  A
C1382      H1387   1.083       .  S
C1383      C1384   1.406       .  A
C1383      O2900   1.372       .  S
C1384      C1385   1.406       .  A
C1385      C1386   1.400       .  A
C1385      H1389   1.081       .  S
C1386      O1390   1.373       .  S
O1388      C2895   1.372   1_554  S
O1388      H1392   0.992       .  S
O1390      H1391   0.991       .  S
C1393      C1394   1.404       .  A
C1393      C1398   1.414       .  A
C1394      C1395   1.395       .  A
C1394      H1399   1.083       .  S
C1395      C1396   1.410       .  A
C1395      O1400   1.372       .  S
C1396      C1397   1.404       .  A
C1397      C1398   1.394       .  A
C1397      H1401   1.084       .  S
C1398      O1402   1.373       .  S
O1400      H1404   0.989       .  S
O1402      H1403   0.990       .  S
C1405      C1406   1.399       .  A
C1405      C1410   1.418       .  A
C1406      C1407   1.387       .  A
C1406      H2923   1.084       .  S
C1407      C1408   1.411       .  A
C1407      O1412   1.373       .  S
C1408      C1409   1.399       .  A
C1409      C1410   1.400       .  A
C1409      H1413   1.083       .  S
C1410      O1414   1.372       .  S
H1411      C2918   1.084   1_554  S
O1412      H2928   0.990       .  S
O1414      H1415   0.991       .  S
H1416      O2924   0.990       .  S
C1417      C1418   1.407       .  A
C1417      C1422   1.409       .  A
C1418      C1419   1.395       .  A
C1418      H1423   1.083       .  S
C1419      C1420   1.412       .  A
C1419      O1424   1.374       .  S
C1420      C1421   1.407       .  A
C1421      C1422   1.404       .  A
C1421      H1425   1.079       .  S
C1422      O1426   1.371       .  S
O1424      H1428   0.990       .  S
O1426      H1427   0.991       .  S
C1429      C1430   1.409       .  A
C1429      C1434   1.403       .  A
C1430      C1431   1.395       .  A
C1430      H1435   1.083       .  S
C1431      C1432   1.402       .  A
C1431      O1436   1.373       .  S
C1432      C1433   1.408       .  A
C1433      C1434   1.386       .  A
C1433      H1437   1.083       .  S
C1434      O1438   1.373       .  S
O1436      H1440   0.990       .  S
O1438      H1439   0.992       .  S
C1441      C1442   1.406       .  A
C1441      C1446   1.414       .  A
C1442      C1443   1.405       .  A
C1442      H1447   1.083       .  S
C1443      C1444   1.416       .  A
C1443      O1448   1.371       .  S
C1444      C1445   1.405       .  A
C1445      C1446   1.392       .  A
C1445      H1449   1.083       .  S
C1446      O1450   1.372       .  S
O1448      H1452   0.989       .  S
O1450      H1451   0.990       .  S
C1453      C1458   1.401       .  A
C1453      C2966   1.408       .  A
C1454      C1455   1.389       .  A
C1454      C2965   1.408       .  A
C1454      H1459   1.084   1_556  S
C1455      C2968   1.401       .  A
C1455      O1460   1.373   1_556  S
C1456      C1457   1.408       .  A
C1456      C2967   1.403       .  A
C1457      C1458   1.392       .  A
C1457      H1461   1.084       .  S
C1458      O1462   1.373       .  S
O1460      H1464   0.993       .  S
O1462      H1463   0.990       .  S
C1465      C1466   1.410       .  A
C1465      C1470   1.407       .  A
C1466      C1467   1.394       .  A
C1466      H1471   1.083       .  S
C1467      C1468   1.402       .  A
C1467      O1472   1.372       .  S
C1468      C1469   1.404       .  A
C1469      C1470   1.386       .  A
C1469      H1473   1.084       .  S
C1470      O1474   1.370       .  S
O1472      H1476   0.991       .  S
O1474      H1475   0.989       .  S
C1477      C1478   1.408       .  A
C1477      C1482   1.411       .  A
C1478      C1479   1.403       .  A
C1478      H1483   1.083       .  S
C1479      C1480   1.405       .  A
C1479      O1484   1.369       .  S
C1480      C1481   1.397       .  A
C1481      C1482   1.388       .  A
C1481      H1485   1.085       .  S
C1482      O1486   1.372       .  S
O1484      H1488   0.992       .  S
O1486      H1487   0.993       .  S
C1489      C1490   1.402       .  A
C1489      C1494   1.408       .  A
C1490      C1491   1.398       .  A
C1490      H1495   1.080       .  S
C1491      C1492   1.409       .  A
C1491      O1496   1.372       .  S
C1492      C1493   1.410       .  A
C1493      C1494   1.395       .  A
C1493      H1497   1.083       .  S
C1494      O1498   1.372       .  S
O1496      H1500   0.991       .  S
O1498      H1499   0.994       .  S
C1501      C1502   1.405       .  A
C1501      C1506   1.394       .  A
C1502      C1503   1.396       .  A
C1502      H1507   1.084       .  S
C1503      C1504   1.402       .  A
C1503      O1508   1.371       .  S
C1504      C1505   1.398       .  A
C1505      C1506   1.389       .  A
C1505      H1509   1.081       .  S
C1506      O1510   1.369       .  S
O1508      H1512   0.993       .  S
O1510      H1511   0.990       .  S
Zr1513     O1514   2.436       .  S
Zr1513     O1515   2.403       .  S
Zr1513     O1516   2.482       .  S
Zr1513     O1519   2.479       .  S
Zr1513     O1521   2.386       .  S
Zr1513     O1523   2.407       .  S
Zr1513     O1524   2.415       .  S
O1514      H1570   0.990       .  S
O1514      H1578   0.991       .  S
O1515      C1535   1.273       .  A
O1516      C1537   1.296       .  A
O1517     Zr1527   2.472       .  S
O1517      C1536   1.292       .  A
O1518     Zr1526   2.415       .  S
O1518      C1537   1.279       .  A
O1520      C1535   1.278       .  A
O1521     Zr1526   2.371       .  S
O1522     Zr1527   2.378       .  S
O1522     Zr1528   2.344       .  S
O1522      H1557   0.965       .  S
O1523     Zr1526   2.395       .  S
O1523     Zr1543   2.402       .  S
O1523      H1560   0.966       .  S
O1524     Zr1543   2.401       .  S
Zr1525     O1550   2.438       .  S
Zr1525     O1544   2.480       .  S
Zr1525     O1552   2.499       .  S
Zr1525     O1540   2.538       .  S
Zr1525     O1531   2.430       .  S
Zr1525     O1532   2.419       .  S
Zr1525     O1534   2.415       .  S
Zr1526     O1545   2.435       .  S
Zr1526     O1538   2.435       .  S
Zr1526     O1539   2.391       .  S
Zr1526     O1533   2.386       .  S
Zr1527     O1529   2.435       .  S
Zr1527     O1551   2.439       .  S
Zr1527     O1553   2.416       .  S
Zr1527     O1531   2.408       .  S
Zr1527     O1534   2.410       .  S
Zr1528     O1554   2.434       .  S
Zr1528     O1555   2.435       .  S
Zr1528     O1531   2.387       .  S
Zr1528     O1532   2.373       .  S
O1529      H1566   0.991       .  S
O1530      H1575   0.988       .  S
O1532      H1558   0.962       .  S
O1533     Zr1543   2.382       .  S
O1534      H1559   0.965       .  S
C1535      C3013   1.449       .  S
C1537      C1603   1.484       .  S
O1538      H1574   0.989       .  S
O1539      C1541   1.277       .  A
C1541      C2216   1.496   1_545  S
O1542     Zr1543   2.442       .  S
O1542      H1571   0.990       .  S
Zr1543     O1546   2.433       .  S
O1544      C1549   1.288       .  A
O1545      H1562   0.989       .  S
O1545      H1577   0.992       .  S
O1546      H1563   0.989       .  S
O1547      H1576   0.987       .  S
O1548      C1549   1.282       .  A
C1549      C2473   1.485       .  S
O1550      H1569   0.992       .  S
O1550      H1573   0.990       .  S
O1551      H1565   0.990       .  S
O1551      H1572   0.990       .  S
O1552      C1556   1.299       .  A
O1553      C1556   1.283       .  A
O1554      H1564   0.991       .  S
O1555      H1568   0.992       .  S
C1556      C1622   1.490       .  S
Zr1579     O1580   2.454       .  S
Zr1579     O1581   2.570       .  S
Zr1579     O1582   2.491       .  S
Zr1579     O1585   2.426       .  S
Zr1579     O1587   2.376       .  S
Zr1579     O1588   2.383       .  S
Zr1579     O1589   2.423       .  S
Zr1579     O1590   2.363       .  S
O1580      H1636   0.991       .  S
O1580      H1644   0.991       .  S
O1581      C1601   1.309       .  A
O1582      C1603   1.293       .  A
O1583     Zr1593   2.466       .  S
O1583      C1602   1.293       .  A
O1584     Zr1592   2.459       .  S
O1584      C1603   1.286       .  A
O1585      C1602   1.274       .  A
O1586     Zr1594   2.333       .  S
O1586      C1601   1.262       .  A
O1587     Zr1592   2.412       .  S
O1587     Zr1594   2.408       .  S
O1588     Zr1593   2.394       .  S
O1588     Zr1594   2.387       .  S
O1588      H1623   0.968       .  S
O1589     Zr1592   2.407       .  S
O1589     Zr1609   2.373       .  S
O1589      H1626   0.960       .  S
O1590     Zr1593   2.294       .  S
O1590     Zr1609   2.352       .  S
Zr1591     O1616   2.445       .  S
Zr1591     O1610   2.469       .  S
Zr1591     O1618   2.484       .  S
Zr1591     O1606   2.436       .  S
Zr1591     O1597   2.381       .  S
Zr1591     O1598   2.439       .  S
Zr1591     O1599   2.397       .  S
Zr1591     O1600   2.400       .  S
Zr1592     O1611   2.445       .  S
Zr1592     O1604   2.434       .  S
Zr1592     O1605   2.442       .  S
Zr1592     O1598   2.417       .  S
Zr1592     O1599   2.408       .  S
Zr1593     O1595   2.439       .  S
Zr1593     O1617   2.446       .  S
Zr1593     O1619   2.491       .  S
Zr1593     O1597   2.362       .  S
Zr1593     O1600   2.424       .  S
Zr1594     O1620   2.435       .  S
Zr1594     O1621   2.438       .  S
Zr1594     O1596   2.440       .  S
Zr1594     O1597   2.351       .  S
Zr1594     O1598   2.340       .  S
O1595      H1632   0.990       .  S
O1596      H1627   0.990       .  S
O1596      H1641   0.990       .  S
O1598      H1624   0.957       .  S
O1599     Zr1609   2.358       .  S
O1600     Zr1609   2.377       .  S
O1600      H1625   0.968       .  S
C1601      C2282   1.491   1_545  S
C1602      C2539   1.485       .  S
O1604      H1640   0.989       .  S
O1605      C1607   1.279       .  A
O1606      C1607   1.281       .  A
C1607      C3004   1.491       .  S
O1608     Zr1609   2.437       .  S
O1608      H1637   0.988       .  S
Zr1609     O1612   2.444       .  S
Zr1609     O1613   2.430       .  S
Zr1609     O1614   2.515       .  S
O1610      C1615   1.285       .  A
O1611      H1628   0.992       .  S
O1611      H1643   0.992       .  S
O1612      H1629   0.990       .  S
O1613      H1633   0.988       .  S
O1613      H1642   0.990       .  S
O1614      C1615   1.296       .  A
C1615      C1733   1.522       .  S
O1616      H1635   0.988       .  S
O1616      H1639   0.989       .  S
O1617      H1631   0.991       .  S
O1617      H1638   0.990       .  S
O1618      C1622   1.296       .  A
O1619      C1622   1.294       .  A
O1620      H1630   0.992       .  S
O1621      H1634   0.988       .  S
Zr1645     O1648   2.434   1_554  S
Zr1645     O1653   2.374   1_554  S
Zr1645     O1654   2.396   1_554  S
Zr1645     O1655   2.417   1_554  S
Zr1645     O1656   2.380       .  S
O1646      H1702   0.988       .  S
O1646      H1710   0.993       .  S
O1648      C1669   1.282       .  A
O1649      C1668   1.293       .  A
O1650     Zr1658   2.437       .  S
O1650      C1669   1.288       .  A
O1651      C1668   1.289       .  A
O1652     Zr1660   2.457       .  S
O1652      C1667   1.284       .  A
O1653     Zr1658   2.392       .  S
O1653     Zr1660   2.368       .  S
O1654     Zr1659   2.415   1_556  S
O1654     Zr1660   2.377       .  S
O1654      H1689   0.966   1_556  S
O1655     Zr1658   2.403       .  S
O1655     Zr1675   2.369       .  S
O1655      H1692   0.990       .  S
O1656     Zr1659   2.371       .  S
O1656     Zr1675   2.349   1_554  S
Zr1657     O1682   2.444       .  S
Zr1657     O1676   2.539       .  S
Zr1657     O1684   2.439       .  S
Zr1657     O1672   2.477       .  S
Zr1657     O1663   2.445       .  S
Zr1657     O1664   2.431       .  S
Zr1657     O1665   2.379       .  S
Zr1657     O1666   2.386       .  S
Zr1658     O1677   2.436       .  S
Zr1658     O1670   2.435       .  S
Zr1658     O1671   2.457       .  S
Zr1658     O1664   2.402       .  S
Zr1658     O1665   2.409       .  S
Zr1659     O1685   2.479   1_554  S
Zr1659     O1663   2.381   1_554  S
Zr1659     O1666   2.386   1_554  S
Zr1660     O1686   2.436       .  S
Zr1660     O1687   2.436       .  S
Zr1660     O1662   2.439       .  S
Zr1660     O1663   2.423       .  S
Zr1660     O1664   2.380       .  S
O1661      H1698   0.991       .  S
O1662      H1693   0.989       .  S
O1662      H1707   0.993       .  S
O1664      H1690   0.959       .  S
O1665     Zr1675   2.400       .  S
O1666     Zr1675   2.399       .  S
O1666      H1691   0.967       .  S
C1668      C1739   1.483       .  S
C1669      C2992   1.461       .  S
O1670      H1706   0.991       .  S
O1671      C1673   1.290       .  A
O1672      C1673   1.292       .  A
C1673      C1734   1.487       .  S
Zr1675     O1678   2.436       .  S
Zr1675     O1680   2.348       .  S
O1676      C1681   1.298       .  A
O1677      H1694   0.988       .  S
O1677      H1709   0.993       .  S
O1678      H1695   0.990       .  S
O1680      C1681   1.262       .  A
C1681      C2612   1.484       .  S
O1682      H1701   0.992       .  S
O1682      H1705   0.989       .  S
O1683      H1697   0.989       .  S
O1683      H1704   0.990       .  S
O1684      C1688   1.280       .  A
O1685      C1688   1.297       .  A
O1686      H1696   0.991       .  S
O1687      H1700   0.990       .  S
C1688      C2327   1.489       .  S
Zr1711     O1712   2.442       .  S
Zr1711     O1713   2.482       .  S
Zr1711     O1714   2.403       .  S
Zr1711     O1717   2.499       .  S
Zr1711     O1719   2.392       .  S
Zr1711     O1720   2.395       .  S
Zr1711     O1721   2.449       .  S
Zr1711     O1722   2.369       .  S
O1712      H1768   0.990       .  S
O1712      H1776   0.991       .  S
O1713      C1733   1.289       .  A
O1714      C1735   1.279       .  A
O1715     Zr1725   2.464       .  S
O1715      C1734   1.291       .  A
O1716     Zr1724   2.430       .  S
O1716      C1735   1.278       .  A
O1717      C1734   1.297       .  A
O1718     Zr1726   2.503       .  S
O1718      C1733   1.294       .  A
O1719     Zr1724   2.403       .  S
O1719     Zr1726   2.357       .  S
O1720     Zr1725   2.414       .  S
O1720     Zr1726   2.381       .  S
O1720      H1755   0.968       .  S
O1721     Zr1724   2.405       .  S
O1721     Zr1741   2.358       .  S
O1721      H1758   0.962       .  S
O1722     Zr1725   2.352       .  S
O1722     Zr1741   2.344       .  S
Zr1723     O1748   2.454       .  S
Zr1723     O1742   2.556       .  S
Zr1723     O1750   2.424       .  S
Zr1723     O1738   2.483       .  S
Zr1723     O1730   2.431       .  S
Zr1723     O1731   2.385       .  S
Zr1723     O1732   2.387       .  S
Zr1723     O1729   2.355       .  S
Zr1724     O1743   2.436       .  S
Zr1724     O1736   2.435       .  S
Zr1724     O1737   2.438       .  S
Zr1724     O1730   2.403       .  S
Zr1724     O1731   2.399       .  S
Zr1725     O1727   2.446       .  S
Zr1725     O1749   2.440       .  S
Zr1725     O1751   2.435       .  S
Zr1725     O1732   2.391       .  S
Zr1725     O1729   2.287       .  S
Zr1726     O1752   2.443       .  S
Zr1726     O1753   2.435       .  S
Zr1726     O1728   2.446       .  S
Zr1726     O1730   2.397       .  S
Zr1726     O1729   2.346       .  S
O1727      H1764   0.990       .  S
O1728      H1759   0.991       .  S
O1728      H1773   0.991       .  S
O1730      H1756   0.962       .  S
O1731     Zr1741   2.398       .  S
O1732     Zr1741   2.392       .  S
O1732      H1757   0.969       .  S
C1735      C2977   1.474       .  S
O1736      H1772   0.990       .  S
O1737      C1739   1.286       .  A
O1738      C1739   1.290       .  A
O1740     Zr1741   2.436       .  S
O1740      H1769   0.990       .  S
Zr1741     O1744   2.436       .  S
Zr1741     O1745   2.438       .  S
Zr1741     O1746   2.336       .  S
O1742      C1747   1.303       .  A
O1743      H1760   0.989       .  S
O1743      H1775   0.990       .  S
O1744      H1761   0.991       .  S
O1745      H1765   0.989       .  S
O1745      H1774   0.991       .  S
O1746      C1747   1.266       .  A
C1747      C2658   1.492       .  S
O1748      H1767   0.990       .  S
O1748      H1771   0.991       .  S
O1749      H1763   0.990       .  S
O1749      H1770   0.991       .  S
O1750      C1754   1.275       .  A
O1751      C1754   1.289       .  A
O1752      H1762   0.991       .  S
O1753      H1766   0.990       .  S
C1754      C2407   1.475       .  S
Zr1777     O1778   2.440       .  S
Zr1777     O1779   2.424       .  S
Zr1777     O1780   2.457       .  S
Zr1777     O1783   2.425       .  S
Zr1777     O1785   2.395       .  S
Zr1777     O1786   2.392       .  S
Zr1777     O1787   2.403       .  S
Zr1777     O1788   2.410       .  S
O1778      H1834   0.989       .  S
O1778      H1842   0.991       .  S
O1779      C1799   1.274       .  A
O1780      C1801   1.288       .  A
O1781      C1800   1.272       .  A
O1782     Zr1790   2.383       .  S
O1782      C1801   1.272       .  A
O1783      C1800   1.284       .  A
O1784     Zr1792   2.435       .  S
O1784      C1799   1.277       .  A
O1785     Zr1790   2.378       .  S
O1785     Zr1792   2.398       .  S
O1786     Zr1792   2.390       .  S
O1786      H1821   0.959       .  S
O1787     Zr1790   2.418       .  S
O1787     Zr1807   2.376   1_565  S
O1787      H1824   0.962       .  S
O1788     Zr1807   2.380   1_565  S
Zr1789     O1814   2.436       .  S
Zr1789     O1808   2.427   1_565  S
Zr1789     O1816   2.446       .  S
Zr1789     O1795   2.394       .  S
Zr1790     O1809   2.445       .  S
Zr1790     O1802   2.434       .  S
Zr1790     O1803   2.388       .  S
Zr1790     O1796   2.389       .  S
Zr1790     O1797   2.371       .  S
Zr1791     O1793   2.435       .  S
Zr1791     O1815   2.440       .  S
Zr1791     O1817   2.368       .  S
Zr1791     O1795   2.390       .  S
Zr1792     O1794   2.438       .  S
Zr1792     O1796   2.422       .  S
O1793      H1830   0.991       .  S
O1794      H1825   0.989       .  S
O1794      H1839   0.991       .  S
O1796      H1822   0.965       .  S
O1797     Zr1807   2.355   1_565  S
O1798     Zr1807   2.371   1_565  S
C1799      C2953   1.490       .  S
C1800      C2965   1.454       .  S
C1801      C1886   1.452       .  S
O1802      H1838   0.992       .  S
O1803      C1805   1.272   1_565  A
O1804      C1805   1.288   1_565  A
C1805      C3016   1.449       .  S
O1806     Zr1807   2.435       .  S
O1806      H1835   0.990       .  S
Zr1807     O1810   2.435       .  S
Zr1807     O1811   2.437       .  S
Zr1807     O1812   2.403       .  S
O1809      H1826   0.988       .  S
O1809      H1841   0.993       .  S
O1810      H1827   0.989       .  S
O1811      H1831   0.988       .  S
O1811      H1840   0.991       .  S
O1812      C1813   1.280       .  A
C1813      C2989   1.476       .  S
O1814      H1833   0.990       .  S
O1814      H1837   0.991       .  S
O1815      H1829   0.990       .  S
O1815      H1836   0.989       .  S
O1816      C1820   1.289       .  A
O1817      C1820   1.273       .  A
O1818      H1828   0.990       .  S
O1819      H1832   0.989       .  S
C1820      C1867   1.454       .  S
Zr1843     O1844   2.440       .  S
Zr1843     O1845   2.426       .  S
Zr1843     O1846   2.438       .  S
Zr1843     O1849   2.430       .  S
Zr1843     O1851   2.392       .  S
Zr1843     O1852   2.389       .  S
Zr1843     O1853   2.401       .  S
Zr1843     O1854   2.412       .  S
O1844      H1900   0.990       .  S
O1844      H1908   0.992       .  S
O1845      C1865   1.279       .  A
O1846      C1867   1.289       .  A
O1847     Zr1857   2.401       .  S
O1847      C1866   1.278       .  A
O1848     Zr1856   2.405       .  S
O1848      C1867   1.276       .  A
O1849      C1866   1.284       .  A
O1850     Zr1858   2.431       .  S
O1850      C1865   1.282       .  A
O1851     Zr1856   2.394       .  S
O1851     Zr1858   2.381       .  S
O1852     Zr1857   2.365       .  S
O1852     Zr1858   2.379       .  S
O1852      H1887   0.961       .  S
O1853     Zr1856   2.424       .  S
O1853     Zr1873   2.381   1_565  S
O1853      H1890   0.965       .  S
O1854     Zr1857   2.388       .  S
O1854     Zr1873   2.388   1_565  S
Zr1855     O1880   2.447       .  S
Zr1855     O1874   2.442   1_565  S
Zr1855     O1882   2.433       .  S
Zr1855     O1870   2.416       .  S
Zr1855     O1862   2.419       .  S
Zr1855     O1863   2.375   1_565  S
Zr1855     O1864   2.381   1_565  S
Zr1855     O1861   2.278       .  S
Zr1856     O1875   2.443       .  S
Zr1856     O1868   2.435       .  S
Zr1856     O1869   2.426   1_565  S
Zr1856     O1862   2.394       .  S
Zr1856     O1863   2.382   1_565  S
Zr1857     O1859   2.444   1_565  S
Zr1857     O1881   2.449       .  S
Zr1857     O1883   2.391       .  S
Zr1857     O1864   2.370   1_565  S
Zr1857     O1861   2.293       .  S
Zr1858     O1884   2.432       .  S
Zr1858     O1885   2.436       .  S
Zr1858     O1860   2.450       .  S
Zr1858     O1862   2.402       .  S
Zr1858     O1861   2.310       .  S
O1859      H1896   0.987       .  S
O1860      H1891   0.991       .  S
O1860      H1905   0.990       .  S
O1862      H1888   0.967       .  S
O1863     Zr1873   2.370       .  S
O1864     Zr1873   2.391       .  S
O1864      H1889   0.968       .  S
C1865      C2929   1.485       .  S
C1866      C2944   1.469       .  S
O1868      H1904   0.990       .  S
O1869      C1871   1.280       .  A
O1870      C1871   1.275   1_565  A
C1871      C3001   1.476       .  S
O1872     Zr1873   2.437       .  S
O1872      H1901   0.991       .  S
Zr1873     O1876   2.435       .  S
Zr1873     O1877   2.438       .  S
Zr1873     O1878   2.392       .  S
O1874      C1879   1.285       .  A
O1875      H1892   0.989       .  S
O1875      H1907   0.990       .  S
O1876      H1893   0.992       .  S
O1877      H1897   0.995       .  S
O1877      H1906   0.987       .  S
O1878      C1879   1.277       .  A
C1879      C2980   1.467       .  S
O1880      H1899   0.990       .  S
O1880      H1903   0.991   1_565  S
O1881      H1895   0.990       .  S
O1881      H1902   0.991       .  S
O1882      C1886   1.286       .  A
O1883      C1886   1.272       .  A
O1884      H1894   0.990       .  S
O1885      H1898   0.989       .  S
Zr1909     O1910   2.443       .  S
Zr1909     O1911   2.576       .  S
Zr1909     O1912   2.493       .  S
Zr1909     O1915   2.427       .  S
Zr1909     O1917   2.376       .  S
Zr1909     O1918   2.390       .  S
Zr1909     O1919   2.444       .  S
Zr1909     O1920   2.462       .  S
O1910      H1966   0.991       .  S
O1910      H1974   0.989       .  S
O1911      C1931   1.307       .  A
O1912      C1933   1.294       .  A
O1913     Zr1923   2.452       .  S
O1913      C1932   1.293       .  A
O1914     Zr1922   2.425       .  S
O1914      C1933   1.279       .  A
O1915      C1932   1.277       .  A
O1916     Zr1924   2.328       .  S
O1916      C1931   1.257       .  A
O1917     Zr1922   2.404       .  S
O1917     Zr1924   2.400       .  S
O1918     Zr1923   2.376       .  S
O1918     Zr1924   2.401       .  S
O1918      H1953   0.966       .  S
O1919     Zr1922   2.395       .  S
O1919     Zr1939   2.396       .  S
O1919      H1956   0.960       .  S
O1920     Zr1923   2.380       .  S
O1920     Zr1939   2.428       .  S
Zr1921     O1946   2.440   1_556  S
Zr1921     O1940   2.471       .  S
Zr1921     O1936   2.465       .  S
Zr1921     O1927   2.374   1_556  S
Zr1921     O1928   2.431       .  S
Zr1921     O1929   2.396       .  S
Zr1921     O1930   2.404       .  S
Zr1922     O1941   2.443       .  S
Zr1922     O1934   2.431       .  S
Zr1922     O1935   2.414       .  S
Zr1922     O1928   2.410       .  S
Zr1922     O1929   2.405       .  S
Zr1923     O1925   2.436   1_556  S
Zr1923     O1947   2.439   1_556  S
Zr1923     O1927   2.362   1_556  S
Zr1923     O1930   2.407       .  S
Zr1924     O1950   2.435   1_556  S
Zr1924     O1951   2.437   1_556  S
Zr1924     O1926   2.438       .  S
Zr1924     O1927   2.347   1_556  S
Zr1924     O1928   2.355       .  S
O1925      H1962   0.990       .  S
O1926      H1957   0.988       .  S
O1926      H1971   0.990       .  S
O1928      H1954   0.956       .  S
O1929     Zr1939   2.370       .  S
O1930     Zr1939   2.380       .  S
O1930      H1955   0.966   1_556  S
C1931      C2328   1.492       .  S
C1932      C2605   1.482       .  S
C1933      C2018   1.481       .  S
O1934      H1970   0.988       .  S
O1935      C1937   1.270       .  A
O1936      C1937   1.285       .  A
C1937      C2956   1.494       .  S
O1938     Zr1939   2.443       .  S
O1938      H1967   0.989       .  S
Zr1939     O1942   2.439       .  S
Zr1939     O1943   2.442       .  S
Zr1939     O1944   2.465       .  S
O1940      C1945   1.289       .  A
O1941      H1958   0.991       .  S
O1941      H1973   0.991       .  S
O1942      H1959   0.988       .  S
O1943      H1963   0.989       .  S
O1943      H1972   0.994       .  S
O1944      C1945   1.289       .  A
C1945      C2063   1.501       .  S
O1946      H1965   0.991       .  S
O1946      H1969   0.989       .  S
O1947      H1968   0.987       .  S
O1948      C1952   1.301       .  A
O1949      C1952   1.292       .  A
O1950      H1960   0.990       .  S
O1951      H1964   0.990       .  S
C1952      C1999   1.493       .  S
Zr1975     O1976   2.453       .  S
Zr1975     O1977   2.577       .  S
Zr1975     O1978   2.504       .  S
Zr1975     O1981   2.433       .  S
Zr1975     O1983   2.379       .  S
Zr1975     O1984   2.385       .  S
Zr1975     O1985   2.432       .  S
Zr1975     O1986   2.370       .  S
O1976      H2032   0.993       .  S
O1976      H2040   0.989       .  S
O1977      C1997   1.307       .  A
O1978      C1999   1.296       .  A
O1979     Zr1989   2.443       .  S
O1979      C1998   1.291       .  A
O1980     Zr1988   2.446       .  S
O1980      C1999   1.284       .  A
O1981      C1998   1.276       .  A
O1982     Zr1990   2.321       .  S
O1982      C1997   1.254       .  A
O1983     Zr1988   2.406       .  S
O1983     Zr1990   2.408       .  S
O1984     Zr1989   2.374       .  S
O1984     Zr1990   2.410       .  S
O1984      H2019   0.967       .  S
O1985     Zr1988   2.400       .  S
O1985     Zr2005   2.389       .  S
O1985      H2022   0.961       .  S
O1986     Zr1989   2.285       .  S
O1986     Zr2005   2.346       .  S
Zr1987     O2012   2.440       .  S
Zr1987     O2006   2.465       .  S
Zr1987     O2014   2.496       .  S
Zr1987     O2002   2.449       .  S
Zr1987     O1993   2.365       .  S
Zr1987     O1994   2.440       .  S
Zr1987     O1995   2.399       .  S
Zr1987     O1996   2.403       .  S
Zr1988     O2007   2.443       .  S
Zr1988     O2000   2.433       .  S
Zr1988     O2001   2.417       .  S
Zr1988     O1994   2.420       .  S
Zr1988     O1995   2.411       .  S
Zr1989     O1991   2.439       .  S
Zr1989     O2013   2.448       .  S
Zr1989     O2015   2.461       .  S
Zr1989     O1993   2.359       .  S
Zr1989     O1996   2.404       .  S
Zr1990     O2016   2.436       .  S
Zr1990     O2017   2.440       .  S
Zr1990     O1992   2.444       .  S
Zr1990     O1993   2.337       .  S
Zr1990     O1994   2.362       .  S
O1991      H2028   0.993       .  S
O1992      H2023   0.990       .  S
O1992      H2037   0.989       .  S
O1994      H2020   0.960       .  S
O1995     Zr2005   2.367       .  S
O1996     Zr2005   2.375       .  S
O1996      H2021   0.967       .  S
C1997      C2414   1.486       .  S
C1998      C2657   1.486       .  S
O2000      H2036   0.990       .  S
O2001      C2003   1.272       .  A
O2002      C2003   1.280       .  A
C2003      C2932   1.491       .  S
O2004     Zr2005   2.437       .  S
O2004      H2033   0.987       .  S
Zr2005     O2008   2.446       .  S
Zr2005     O2009   2.449       .  S
Zr2005     O2010   2.479       .  S
O2006      C2011   1.286       .  A
O2007      H2024   0.989       .  S
O2007      H2039   0.991       .  S
O2008      H2025   0.992       .  S
O2009      H2029   0.990       .  S
O2009      H2038   0.991       .  S
O2010      C2011   1.290       .  A
C2011      C2129   1.503       .  S
O2012      H2031   0.992       .  S
O2012      H2035   0.989       .  S
O2013      H2027   0.990       .  S
O2013      H2034   0.990       .  S
O2014      C2018   1.299       .  A
O2015      C2018   1.289       .  A
O2016      H2026   0.992       .  S
O2017      H2030   0.989       .  S
Zr2041     O2042   2.443       .  S
Zr2041     O2043   2.452       .  S
Zr2041     O2044   2.402       .  S
Zr2041     O2047   2.461       .  S
Zr2041     O2049   2.384       .  S
Zr2041     O2050   2.389       .  S
Zr2041     O2051   2.422       .  S
Zr2041     O2052   2.374       .  S
O2042      H2098   0.990       .  S
O2042      H2106   0.991       .  S
O2043      C2063   1.282       .  A
O2044      C2065   1.280       .  A
O2045     Zr2055   2.477       .  S
O2045      C2064   1.294       .  A
O2046     Zr2054   2.432       .  S
O2047      C2064   1.290       .  A
O2048      C2063   1.291       .  A
O2050     Zr2055   2.403       .  S
O2050      H2085   0.968       .  S
O2051     Zr2071   2.365       .  S
O2051      H2088   0.965       .  S
O2052     Zr2055   2.367       .  S
O2052     Zr2071   2.351       .  S
Zr2053     O2078   2.452       .  S
Zr2053     O2072   2.552       .  S
Zr2053     O2080   2.427       .  S
Zr2053     O2068   2.471       .  S
Zr2053     O2060   2.428       .  S
Zr2053     O2061   2.381       .  S
Zr2054     O2073   2.435       .  S
Zr2054     O2066   2.436       .  S
Zr2054     O2067   2.436       .  S
Zr2054     O2060   2.406       .  S
Zr2054     O2061   2.404       .  S
Zr2055     O2057   2.445       .  S
Zr2055     O2079   2.439       .  S
Zr2055     O2081   2.458       .  S
Zr2055     O2062   2.376       .  S
Zr2055     O2059   2.288       .  S
Zr2056     O2083   2.435       .  S
Zr2056     O2058   2.446       .  S
Zr2056     O2060   2.383       .  S
O2057      H2094   0.989       .  S
O2058      H2089   0.992       .  S
O2058      H2103   0.990       .  S
O2060      H2086   0.963       .  S
O2062     Zr2071   2.401       .  S
O2062      H2087   0.966       .  S
C2064      C2135   1.480       .  S
C2065      C2968   1.454       .  S
O2066      H2102   0.989       .  S
O2067      C2069   1.286       .  A
O2068      C2069   1.289       .  A
C2069      C2130   1.477       .  S
O2070     Zr2071   2.442       .  S
O2070      H2099   0.991       .  S
Zr2071     O2075   2.437       .  S
O2072      C2077   1.300       .  A
O2073      H2090   0.991       .  S
O2073      H2105   0.990       .  S
O2075      H2095   0.991       .  S
O2075      H2104   0.990       .  S
O2076      C2077   1.261       .  A
C2077      C2480   1.486   1_565  S
O2078      H2097   0.990       .  S
O2078      H2101   0.991       .  S
O2079      H2093   0.989       .  S
O2079      H2100   0.989       .  S
O2081      C2084   1.293   1_455  A
O2082      H2092   0.992       .  S
O2083      H2096   0.988       .  S
Zr2107     O2108   2.444       .  S
Zr2107     O2109   2.461       .  S
Zr2107     O2110   2.404       .  S
Zr2107     O2113   2.454       .  S
Zr2107     O2115   2.380       .  S
Zr2107     O2116   2.390       .  S
Zr2107     O2117   2.424       .  S
Zr2107     O2118   2.374       .  S
O2108      H2164   0.988       .  S
O2108      H2172   0.993       .  S
O2109      C2129   1.284       .  A
O2110      C2131   1.279       .  A
O2111     Zr2121   2.481       .  S
O2111      C2130   1.293       .  A
O2112     Zr2120   2.438       .  S
O2112      C2131   1.288       .  A
O2113      C2130   1.289       .  A
O2114     Zr2122   2.490       .  S
O2114      C2129   1.291       .  A
O2115     Zr2120   2.394       .  S
O2115     Zr2122   2.363       .  S
O2116     Zr2121   2.406       .  S
O2116     Zr2122   2.373       .  S
O2116      H2151   0.968       .  S
O2117     Zr2120   2.404       .  S
O2117     Zr2137   2.369       .  S
O2117      H2154   0.963       .  S
O2118     Zr2121   2.364       .  S
O2118     Zr2137   2.347       .  S
Zr2119     O2144   2.452       .  S
Zr2119     O2138   2.554       .  S
Zr2119     O2146   2.433       .  S
Zr2119     O2134   2.465       .  S
Zr2119     O2126   2.429       .  S
Zr2119     O2127   2.383       .  S
Zr2119     O2128   2.380       .  S
Zr2119     O2125   2.364       .  S
Zr2120     O2139   2.433       .  S
Zr2120     O2132   2.435       .  S
Zr2120     O2133   2.451       .  S
Zr2120     O2126   2.405       .  S
Zr2120     O2127   2.407       .  S
Zr2121     O2123   2.449       .  S
Zr2121     O2145   2.441       .  S
Zr2121     O2147   2.453       .  S
Zr2121     O2128   2.381       .  S
Zr2121     O2125   2.292       .  S
Zr2122     O2148   2.444       .  S
Zr2122     O2149   2.435       .  S
Zr2122     O2124   2.446       .  S
Zr2122     O2126   2.380       .  S
Zr2122     O2125   2.353       .  S
O2123      H2160   0.992       .  S
O2124      H2155   0.991       .  S
O2124      H2169   0.992       .  S
O2126      H2152   0.961       .  S
O2127     Zr2137   2.401       .  S
O2128     Zr2137   2.394       .  S
O2128      H2153   0.966       .  S
C2131      C2941   1.468       .  S
O2132      H2168   0.990       .  S
O2133      C2135   1.289       .  A
O2134      C2135   1.288       .  A
O2136     Zr2137   2.437       .  S
O2136      H2165   0.991       .  S
Zr2137     O2140   2.438       .  S
Zr2137     O2141   2.436       .  S
Zr2137     O2142   2.346       .  S
O2138      C2143   1.301       .  A
O2139      H2156   0.991       .  S
O2139      H2171   0.989       .  S
O2140      H2157   0.989       .  S
O2141      H2161   0.991       .  S
O2141      H2170   0.991       .  S
O2142      C2143   1.260       .  A
C2143      C2546   1.488   1_565  S
O2144      H2163   0.990       .  S
O2144      H2167   0.993       .  S
O2145      H2159   0.989       .  S
O2145      H2166   0.991       .  S
O2146      C2150   1.277   1_455  A
O2147      C2150   1.292   1_455  A
O2148      H2158   0.991       .  S
O2149      H2162   0.988       .  S
C2150      C2275   1.485       .  S
Zr2173     O2174   2.443       .  S
Zr2173     O2175   2.475       .  S
Zr2173     O2176   2.438       .  S
Zr2173     O2179   2.474       .  S
Zr2173     O2181   2.381       .  S
Zr2173     O2182   2.401       .  S
Zr2173     O2183   2.420       .  S
Zr2173     O2184   2.372       .  S
O2174      H2230   0.993       .  S
O2174      H2238   0.989       .  S
O2175      C2195   1.288       .  A
O2176      C2197   1.286       .  A
O2177     Zr2187   2.493       .  S
O2177      C2196   1.297       .  A
O2178     Zr2186   2.436       .  S
O2179      C2196   1.293       .  A
O2180      C2195   1.290       .  A
O2182     Zr2187   2.418       .  S
O2182      H2217   0.968       .  S
O2183     Zr2203   2.360       .  S
O2183      H2220   0.963       .  S
O2184     Zr2187   2.357       .  S
O2184     Zr2203   2.338       .  S
Zr2185     O2210   2.452       .  S
Zr2185     O2204   2.558       .  S
Zr2185     O2212   2.434       .  S
Zr2185     O2200   2.476       .  S
Zr2185     O2192   2.427       .  S
Zr2185     O2193   2.377       .  S
Zr2186     O2205   2.436       .  S
Zr2186     O2198   2.435       .  S
Zr2186     O2199   2.468       .  S
Zr2186     O2192   2.397       .  S
Zr2186     O2193   2.409       .  S
Zr2187     O2189   2.446       .  S
Zr2187     O2211   2.439       .  S
Zr2187     O2213   2.470       .  S
Zr2187     O2194   2.384       .  S
Zr2187     O2191   2.291       .  S
Zr2188     O2215   2.435       .  S
Zr2188     O2190   2.447       .  S
Zr2188     O2192   2.379       .  S
O2189      H2226   0.990       .  S
O2190      H2221   0.991       .  S
O2190      H2235   0.989       .  S
O2192      H2218   0.960       .  S
O2194     Zr2203   2.400       .  S
O2194      H2219   0.968       .  S
C2195      C2341   1.511       .  S
C2196      C2267   1.483       .  S
C2197      C2917   1.481       .  S
O2198      H2234   0.991       .  S
O2199      C2201   1.292       .  A
O2200      C2201   1.291       .  A
C2201      C2262   1.491       .  S
O2202     Zr2203   2.438       .  S
O2202      H2231   0.992       .  S
Zr2203     O2206   2.435       .  S
Zr2203     O2207   2.437       .  S
O2204      C2209   1.302       .  A
O2205      H2222   0.990       .  S
O2205      H2237   0.991       .  S
O2206      H2223   0.987       .  S
O2207      H2227   0.991       .  S
O2207      H2236   0.989       .  S
O2208      C2209   1.257       .  A
O2210      H2229   0.990       .  S
O2210      H2233   0.991       .  S
O2211      H2225   0.991       .  S
O2211      H2232   0.989       .  S
O2213      C2216   1.294       .  A
O2214      H2224   0.989       .  S
O2215      H2228   0.988       .  S
Zr2239     O2240   2.442       .  S
Zr2239     O2241   2.465       .  S
Zr2239     O2242   2.453       .  S
Zr2239     O2245   2.476       .  S
Zr2239     O2247   2.386       .  S
Zr2239     O2248   2.404       .  S
Zr2239     O2249   2.416       .  S
Zr2239     O2250   2.381       .  S
O2240      H2296   0.990       .  S
O2240      H2304   0.991       .  S
O2241      C2261   1.285       .  A
O2242      C2263   1.289       .  A
O2243     Zr2253   2.486       .  S
O2243      C2262   1.296       .  A
O2244     Zr2252   2.402       .  S
O2244      C2263   1.280       .  A
O2245      C2262   1.293       .  A
O2246     Zr2254   2.478       .  S
O2246      C2261   1.289       .  A
O2247     Zr2252   2.400       .  S
O2247     Zr2254   2.369       .  S
O2248     Zr2253   2.408       .  S
O2248     Zr2254   2.371       .  S
O2248      H2283   0.968       .  S
O2249     Zr2252   2.413       .  S
O2249     Zr2269   2.375       .  S
O2249      H2286   0.963       .  S
O2250     Zr2253   2.373       .  S
O2250     Zr2269   2.348       .  S
Zr2251     O2276   2.453       .  S
Zr2251     O2270   2.558       .  S
Zr2251     O2278   2.418       .  S
Zr2251     O2266   2.479       .  S
Zr2251     O2258   2.425       .  S
Zr2251     O2259   2.376       .  S
Zr2251     O2260   2.389       .  S
Zr2251     O2257   2.361       .  S
Zr2252     O2271   2.434       .  S
Zr2252     O2264   2.435       .  S
Zr2252     O2265   2.443       .  S
Zr2252     O2258   2.392       .  S
Zr2252     O2259   2.398       .  S
Zr2253     O2255   2.444       .  S
Zr2253     O2277   2.439       .  S
Zr2253     O2279   2.480       .  S
Zr2253     O2260   2.374       .  S
Zr2253     O2257   2.288       .  S
Zr2254     O2280   2.440       .  S
Zr2254     O2281   2.434       .  S
Zr2254     O2256   2.448       .  S
Zr2254     O2258   2.380       .  S
Zr2254     O2257   2.340       .  S
O2255      H2292   0.989       .  S
O2256      H2287   0.991       .  S
O2256      H2301   0.991       .  S
O2258      H2284   0.962       .  S
O2259     Zr2269   2.402       .  S
O2260     Zr2269   2.407       .  S
O2260      H2285   0.967       .  S
C2261      C2393   1.500       .  S
C2263      C2905   1.472       .  S
O2264      H2300   0.990       .  S
O2265      C2267   1.288       .  A
O2266      C2267   1.290       .  A
O2268     Zr2269   2.437       .  S
O2268      H2297   0.990       .  S
Zr2269     O2272   2.435       .  S
Zr2269     O2273   2.441       .  S
Zr2269     O2274   2.345       .  S
O2270      C2275   1.300       .  A
O2271      H2288   0.991       .  S
O2271      H2303   0.988       .  S
O2272      H2289   0.989       .  S
O2273      H2293   0.990       .  S
O2273      H2302   0.989       .  S
O2274      C2275   1.255       .  A
O2276      H2295   0.992       .  S
O2276      H2299   0.989       .  S
O2277      H2291   0.989       .  S
O2277      H2298   0.992       .  S
O2278      C2282   1.275       .  A
O2279      C2282   1.299       .  A
O2280      H2290   0.992       .  S
O2281      H2294   0.990       .  S
Zr2305     O2306   2.456       .  S
Zr2305     O2307   2.545       .  S
Zr2305     O2308   2.482       .  S
Zr2305     O2311   2.430       .  S
Zr2305     O2313   2.391       .  S
Zr2305     O2314   2.393       .  S
Zr2305     O2315   2.434       .  S
Zr2305     O2316   2.354       .  S
O2306      H2362   0.991       .  S
O2306      H2370   0.991       .  S
O2307      C2327   1.298       .  A
O2308      C2329   1.290       .  A
O2309     Zr2319   2.468       .  S
O2309      C2328   1.295       .  A
O2310     Zr2318   2.454       .  S
O2310      C2329   1.287       .  A
O2311      C2328   1.275       .  A
O2312     Zr2320   2.354       .  S
O2312      C2327   1.263       .  A
O2313     Zr2318   2.403       .  S
O2313     Zr2320   2.403       .  S
O2314     Zr2319   2.390       .  S
O2314     Zr2320   2.395       .  S
O2314      H2349   0.966       .  S
O2315     Zr2318   2.408       .  S
O2315     Zr2335   2.388       .  S
O2315      H2352   0.961       .  S
O2316     Zr2319   2.289       .  S
O2316     Zr2335   2.347       .  S
Zr2317     O2336   2.464       .  S
Zr2317     O2332   2.416       .  S
Zr2317     O2323   2.385   1_556  S
Zr2317     O2324   2.442       .  S
Zr2317     O2325   2.394       .  S
Zr2317     O2326   2.390       .  S
Zr2318     O2337   2.444       .  S
Zr2318     O2330   2.433       .  S
Zr2318     O2331   2.442       .  S
Zr2318     O2324   2.420       .  S
Zr2318     O2325   2.403       .  S
Zr2319     O2321   2.438   1_556  S
Zr2319     O2323   2.367   1_556  S
Zr2319     O2326   2.415       .  S
Zr2320     O2346   2.437   1_556  S
Zr2320     O2347   2.436   1_556  S
Zr2320     O2322   2.440       .  S
Zr2320     O2323   2.361   1_556  S
Zr2320     O2324   2.359       .  S
O2321      H2358   0.990   1_554  S
O2322      H2353   0.990       .  S
O2322      H2367   0.991       .  S
O2324      H2350   0.960       .  S
O2325     Zr2335   2.357       .  S
O2326     Zr2335   2.380       .  S
O2326      H2351   0.968   1_556  S
C2329      C2394   1.486       .  S
O2330      H2366   0.991       .  S
O2331      C2333   1.279       .  A
O2332      C2333   1.274       .  A
C2333      C2893   1.482       .  S
O2334     Zr2335   2.436       .  S
O2334      H2363   0.988       .  S
Zr2335     O2338   2.446       .  S
Zr2335     O2339   2.444       .  S
Zr2335     O2340   2.499       .  S
O2336      C2341   1.284       .  A
O2337      H2354   0.992       .  S
O2337      H2369   0.990       .  S
O2338      H2355   0.993       .  S
O2339      H2359   0.987       .  S
O2339      H2368   0.991       .  S
O2340      C2341   1.291       .  A
O2342      H2361   0.990       .  S
O2343      H2357   0.992       .  S
O2344      C2348   1.292       .  A
O2345      C2348   1.294       .  A
O2346      H2356   0.988       .  S
O2347      H2360   0.990       .  S
C2348      C2399   1.486       .  S
Zr2371     O2372   2.444       .  S
Zr2371     O2373   2.450       .  S
Zr2371     O2374   2.421       .  S
Zr2371     O2377   2.467       .  S
Zr2371     O2379   2.396       .  S
Zr2371     O2380   2.394       .  S
Zr2371     O2381   2.438       .  S
Zr2371     O2382   2.371       .  S
O2372      H2428   0.987       .  S
O2372      H2436   0.991       .  S
O2373      C2393   1.282       .  A
O2374      C2395   1.274       .  A
O2375     Zr2385   2.490       .  S
O2375      C2394   1.296       .  A
O2376     Zr2384   2.438       .  S
O2376      C2395   1.279       .  A
O2377      C2394   1.292       .  A
O2378     Zr2386   2.478       .  S
O2378      C2393   1.289       .  A
O2379     Zr2384   2.411       .  S
O2379     Zr2386   2.366       .  S
O2380     Zr2385   2.414       .  S
O2380     Zr2386   2.378       .  S
O2380      H2415   0.965       .  S
O2381     Zr2384   2.416       .  S
O2381     Zr2401   2.370       .  S
O2381      H2418   0.958       .  S
O2382     Zr2385   2.359       .  S
O2382     Zr2401   2.341       .  S
Zr2383     O2408   2.446       .  S
Zr2383     O2402   2.538       .  S
Zr2383     O2410   2.413       .  S
Zr2383     O2398   2.476       .  S
Zr2383     O2389   2.455       .  S
Zr2383     O2390   2.428       .  S
Zr2383     O2391   2.376       .  S
Zr2383     O2392   2.388       .  S
Zr2384     O2403   2.435       .  S
Zr2384     O2396   2.437       .  S
Zr2384     O2397   2.465       .  S
Zr2384     O2390   2.403       .  S
Zr2384     O2391   2.398       .  S
Zr2385     O2387   2.438       .  S
Zr2385     O2409   2.437       .  S
Zr2385     O2411   2.476       .  S
Zr2385     O2389   2.386       .  S
Zr2385     O2392   2.378       .  S
Zr2386     O2412   2.435       .  S
Zr2386     O2413   2.435       .  S
Zr2386     O2388   2.438       .  S
Zr2386     O2389   2.433       .  S
Zr2386     O2390   2.385       .  S
O2387      H2424   0.989       .  S
O2388      H2419   0.989       .  S
O2388      H2433   0.990       .  S
O2390      H2416   0.958       .  S
O2391     Zr2401   2.402       .  S
O2392     Zr2401   2.405       .  S
O2392      H2417   0.967       .  S
C2395      C2881   1.483       .  S
O2396      H2432   0.990       .  S
O2397      C2399   1.291       .  A
O2398      C2399   1.290       .  A
O2400     Zr2401   2.442       .  S
O2400      H2429   0.991       .  S
Zr2401     O2404   2.440       .  S
Zr2401     O2405   2.439       .  S
Zr2401     O2406   2.336       .  S
O2402      C2407   1.299       .  A
O2403      H2420   0.989       .  S
O2403      H2435   0.991       .  S
O2404      H2421   0.992       .  S
O2405      H2425   0.989       .  S
O2405      H2434   0.991       .  S
O2406      C2407   1.260       .  A
O2408      H2427   0.989       .  S
O2408      H2431   0.991       .  S
O2409      H2423   0.989       .  S
O2409      H2430   0.992       .  S
O2410      C2414   1.273       .  A
O2411      C2414   1.298       .  A
O2412      H2422   0.989       .  S
O2413      H2426   0.992       .  S
Zr2437     O2438   2.443       .  S
Zr2437     O2439   2.484       .  S
Zr2437     O2440   2.442       .  S
Zr2437     O2443   2.483       .  S
Zr2437     O2446   2.397       .  S
Zr2437     O2447   2.430       .  S
Zr2437     O2448   2.384       .  S
O2438      H2494   0.987       .  S
O2438      H2502   0.991       .  S
O2439      C2459   1.291       .  A
O2441     Zr2451   2.478       .  S
O2441      C2460   1.293       .  A
O2442     Zr2450   2.441       .  S
O2442      C2461   1.279       .  A
O2443      C2460   1.294       .  A
O2444      C2459   1.280       .  A
O2445     Zr2450   2.401       .  S
O2445     Zr2452   2.376       .  S
O2446     Zr2451   2.406       .  S
O2446      H2481   0.966       .  S
O2447     Zr2467   2.357       .  S
O2447      H2484   0.959       .  S
O2448     Zr2451   2.353       .  S
O2448     Zr2467   2.350       .  S
Zr2449     O2474   2.442       .  S
Zr2449     O2468   2.538   1_455  S
Zr2449     O2476   2.443       .  S
Zr2449     O2464   2.477       .  S
Zr2449     O2455   2.457       .  S
Zr2449     O2456   2.434       .  S
Zr2449     O2457   2.379       .  S
Zr2450     O2469   2.436       .  S
Zr2450     O2462   2.435       .  S
Zr2450     O2463   2.451       .  S
Zr2450     O2456   2.407       .  S
Zr2450     O2457   2.406       .  S
Zr2451     O2453   2.437       .  S
Zr2451     O2475   2.437       .  S
Zr2451     O2477   2.441       .  S
Zr2451     O2458   2.388       .  S
Zr2452     O2479   2.436       .  S
Zr2452     O2454   2.439       .  S
Zr2452     O2455   2.421       .  S
Zr2452     O2456   2.384       .  S
O2453      H2490   0.990       .  S
O2454      H2485   0.990       .  S
O2454      H2499   0.989       .  S
O2456      H2482   0.957       .  S
O2458     Zr2467   2.381       .  S
O2458      H2483   0.966       .  S
C2459      C2591   1.489       .  S
C2460      C2531   1.492       .  S
C2461      C2872   1.492       .  S
O2462      H2498   0.993       .  S
O2463      C2465   1.287       .  A
O2464      C2465   1.292       .  A
C2465      C2526   1.480       .  S
O2466     Zr2467   2.436   1_655  S
O2466      H2495   0.993   1_655  S
Zr2467     O2471   2.440   1_455  S
O2468      C2473   1.293       .  A
O2469      H2486   0.990       .  S
O2469      H2501   0.989       .  S
O2470      H2487   0.989       .  S
O2471      H2491   0.987       .  S
O2471      H2500   0.991   1_655  S
O2472      C2473   1.259       .  A
O2474      H2493   0.988       .  S
O2474      H2497   0.993       .  S
O2475      H2489   0.991       .  S
O2475      H2496   0.989       .  S
O2476      C2480   1.280       .  A
O2478      H2488   0.992       .  S
O2479      H2492   0.990       .  S
Zr2503     O2504   2.442       .  S
Zr2503     O2505   2.471       .  S
Zr2503     O2506   2.431       .  S
Zr2503     O2509   2.488       .  S
Zr2503     O2511   2.393       .  S
Zr2503     O2512   2.394       .  S
Zr2503     O2513   2.435       .  S
Zr2503     O2514   2.368       .  S
O2504      H2560   0.988       .  S
O2504      H2568   0.991       .  S
O2505      C2525   1.288       .  A
O2506      C2527   1.279       .  A
O2507     Zr2517   2.464       .  S
O2507      C2526   1.291       .  A
O2508     Zr2516   2.443       .  S
O2508      C2527   1.279       .  A
O2509      C2526   1.296       .  A
O2510     Zr2518   2.451       .  S
O2510      C2525   1.284       .  A
O2511     Zr2516   2.412       .  S
O2511     Zr2518   2.375       .  S
O2512     Zr2517   2.408       .  S
O2512     Zr2518   2.375       .  S
O2512      H2547   0.964       .  S
O2513     Zr2516   2.416       .  S
O2513     Zr2533   2.367       .  S
O2513      H2550   0.959       .  S
O2514     Zr2517   2.349       .  S
O2514     Zr2533   2.334       .  S
Zr2515     O2540   2.441       .  S
Zr2515     O2534   2.556   1_455  S
Zr2515     O2542   2.449       .  S
Zr2515     O2530   2.493       .  S
Zr2515     O2521   2.460       .  S
Zr2515     O2522   2.434       .  S
Zr2515     O2523   2.382       .  S
Zr2515     O2524   2.398       .  S
Zr2516     O2535   2.435       .  S
Zr2516     O2528   2.436       .  S
Zr2516     O2529   2.466       .  S
Zr2516     O2522   2.404       .  S
Zr2516     O2523   2.400       .  S
Zr2517     O2519   2.435       .  S
Zr2517     O2541   2.435       .  S
Zr2517     O2543   2.442       .  S
Zr2517     O2521   2.386       .  S
Zr2517     O2524   2.382       .  S
Zr2518     O2544   2.438       .  S
Zr2518     O2545   2.435       .  S
Zr2518     O2520   2.439       .  S
Zr2518     O2521   2.427       .  S
Zr2518     O2522   2.383       .  S
O2519      H2556   0.993       .  S
O2520      H2551   0.992       .  S
O2520      H2565   0.989       .  S
O2522      H2548   0.959       .  S
O2523     Zr2533   2.409       .  S
O2524     Zr2533   2.397       .  S
O2524      H2549   0.966       .  S
C2525      C2671   1.496       .  S
C2527      C2860   1.490       .  S
O2528      H2564   0.989       .  S
O2529      C2531   1.291       .  A
O2530      C2531   1.295       .  A
O2532     Zr2533   2.440       .  S
O2532      H2561   0.990       .  S
Zr2533     O2536   2.440   1_455  S
Zr2533     O2537   2.441       .  S
Zr2533     O2538   2.340   1_455  S
O2534      C2539   1.299       .  A
O2535      H2552   0.990       .  S
O2535      H2567   0.987       .  S
O2536      H2553   0.989       .  S
O2537      H2557   0.992       .  S
O2537      H2566   0.987       .  S
O2538      C2539   1.252       .  A
O2540      H2559   0.988       .  S
O2540      H2563   0.992       .  S
O2541      H2555   0.989       .  S
O2541      H2562   0.990       .  S
O2542      C2546   1.281       .  A
O2543      C2546   1.291       .  A
O2544      H2554   0.991       .  S
O2545      H2558   0.991       .  S
Zr2569     O2571   2.453   1_554  S
Zr2569     O2572   2.406   1_554  S
Zr2569     O2577   2.386   1_554  S
Zr2569     O2578   2.391   1_554  S
Zr2569     O2579   2.433   1_554  S
Zr2569     O2580   2.360       .  S
O2570      H2626   0.988       .  S
O2571      C2591   1.284       .  A
O2572      C2593   1.281       .  A
O2573      C2592   1.284       .  A
O2574     Zr2582   2.428       .  S
O2574      C2593   1.279       .  A
O2575      C2592   1.299       .  A
O2576     Zr2584   2.476       .  S
O2576      C2591   1.287       .  A
O2577     Zr2582   2.387       .  S
O2577     Zr2584   2.354       .  S
O2578     Zr2583   2.401       .  S
O2578     Zr2584   2.376       .  S
O2578      H2613   0.967   1_556  S
O2579     Zr2582   2.403       .  S
O2579     Zr2599   2.370       .  S
O2579      H2616   0.966       .  S
O2580     Zr2583   2.364   1_554  S
O2580     Zr2599   2.343   1_554  S
Zr2581     O2606   2.452       .  S
Zr2581     O2600   2.556       .  S
Zr2581     O2608   2.446       .  S
Zr2581     O2596   2.492       .  S
Zr2581     O2588   2.427       .  S
Zr2581     O2589   2.388       .  S
Zr2581     O2590   2.379       .  S
Zr2581     O2587   2.356       .  S
Zr2582     O2601   2.434       .  S
Zr2582     O2594   2.436       .  S
Zr2582     O2595   2.437       .  S
Zr2582     O2588   2.406       .  S
Zr2582     O2589   2.397       .  S
Zr2583     O2607   2.440   1_556  S
Zr2583     O2609   2.428       .  S
Zr2583     O2590   2.377       .  S
Zr2583     O2587   2.287       .  S
Zr2584     O2610   2.441       .  S
Zr2584     O2611   2.434       .  S
Zr2584     O2586   2.448       .  S
Zr2584     O2588   2.376       .  S
Zr2584     O2587   2.344       .  S
O2585      H2622   0.990       .  S
O2586      H2617   0.989       .  S
O2586      H2631   0.994       .  S
O2588      H2614   0.961       .  S
O2589     Zr2599   2.396       .  S
O2590     Zr2599   2.408       .  S
O2590      H2615   0.966       .  S
C2592      C2659   1.481       .  S
C2593      C2848   1.473       .  S
O2594      H2630   0.991       .  S
O2595      C2597   1.285       .  A
O2596      C2597   1.294       .  A
C2597      C2678   1.483       .  S
O2598     Zr2599   2.437   1_554  S
O2598      H2627   0.993       .  S
Zr2599     O2602   2.436       .  S
Zr2599     O2603   2.438   1_556  S
Zr2599     O2604   2.330       .  S
O2600      C2605   1.303       .  A
O2601      H2618   0.991       .  S
O2601      H2633   0.990       .  S
O2602      H2619   0.990       .  S
O2603      H2623   0.991       .  S
O2603      H2632   0.990       .  S
O2604      C2605   1.261       .  A
O2606      H2625   0.988       .  S
O2606      H2629   0.993       .  S
O2607      H2628   0.993       .  S
O2608      C2612   1.280       .  A
O2609      C2612   1.287       .  A
O2610      H2620   0.992       .  S
O2611      H2624   0.988       .  S
Zr2635     O2636   2.451       .  S
Zr2635     O2637   2.565       .  S
Zr2635     O2638   2.506       .  S
Zr2635     O2641   2.450       .  S
Zr2635     O2643   2.383       .  S
Zr2635     O2644   2.385       .  S
Zr2635     O2645   2.431       .  S
Zr2635     O2646   2.360       .  S
O2636      H2692   0.991       .  S
O2636      H2700   0.989       .  S
O2637      C2657   1.304       .  A
O2638      C2659   1.298       .  A
O2639     Zr2649   2.443       .  S
O2639      C2658   1.290       .  A
O2640     Zr2648   2.417       .  S
O2640      C2659   1.280       .  A
O2641      C2658   1.281       .  A
O2642     Zr2650   2.329       .  S
O2642      C2657   1.260       .  A
O2643     Zr2648   2.400       .  S
O2643     Zr2650   2.399       .  S
O2644     Zr2649   2.378       .  S
O2644     Zr2650   2.406       .  S
O2644      H2679   0.967       .  S
O2645     Zr2648   2.397       .  S
O2645     Zr2665   2.382       .  S
O2645      H2682   0.961       .  S
O2646     Zr2649   2.285       .  S
O2646     Zr2665   2.338       .  S
Zr2647     O2672   2.442       .  S
Zr2647     O2666   2.464       .  S
Zr2647     O2674   2.490       .  S
Zr2647     O2662   2.441       .  S
Zr2647     O2653   2.364       .  S
Zr2647     O2654   2.421       .  S
Zr2647     O2655   2.379       .  S
Zr2647     O2656   2.403       .  S
Zr2648     O2667   2.440       .  S
Zr2648     O2660   2.434       .  S
Zr2648     O2661   2.396       .  S
Zr2648     O2654   2.399       .  S
Zr2648     O2655   2.380       .  S
Zr2649     O2651   2.438       .  S
Zr2649     O2673   2.445       .  S
Zr2649     O2675   2.463       .  S
Zr2649     O2653   2.362       .  S
Zr2649     O2656   2.403       .  S
Zr2650     O2676   2.435       .  S
Zr2650     O2677   2.436       .  S
Zr2650     O2652   2.440       .  S
Zr2650     O2653   2.336       .  S
Zr2650     O2654   2.366       .  S
O2651      H2688   0.990       .  S
O2652      H2683   0.990       .  S
O2652      H2697   0.989       .  S
O2654      H2680   0.964       .  S
O2655     Zr2665   2.362       .  S
O2656     Zr2665   2.377       .  S
O2656      H2681   0.968       .  S
O2660      H2696   0.990       .  S
O2661      C2663   1.280       .  A
O2662      C2663   1.286       .  A
C2663      C2833   1.467       .  S
O2664     Zr2665   2.435       .  S
O2664      H2693   0.990       .  S
Zr2665     O2668   2.444       .  S
Zr2665     O2669   2.444       .  S
Zr2665     O2670   2.480       .  S
O2666      C2671   1.285       .  A
O2667      H2684   0.989       .  S
O2667      H2699   0.989       .  S
O2668      H2685   0.990       .  S
O2669      H2689   0.989       .  S
O2669      H2698   0.990       .  S
O2670      C2671   1.289       .  A
O2672      H2691   0.990       .  S
O2672      H2695   0.992       .  S
O2673      H2687   0.990       .  S
O2673      H2694   0.989       .  S
O2674      C2678   1.297       .  A
O2675      C2678   1.291       .  A
O2676      H2686   0.992       .  S
O2677      H2690   0.991       .  S
Zr2701     O2702   2.442   1_655  S
Zr2701     O2703   2.406       .  S
Zr2701     O2704   2.432       .  S
Zr2701     O2711   2.388       .  S
O2702      H2758   0.990       .  S
O2702      H2766   0.991       .  S
O2704      C2725   1.282       .  A
O2705     Zr2715   2.438   1_455  S
O2705      C2724   1.286       .  A
O2706     Zr2714   2.432       .  S
O2706      C2725   1.282       .  A
O2707      C2724   1.280       .  A
O2708     Zr2716   2.447       .  S
O2708      C2723   1.281       .  A
O2709     Zr2716   2.390       .  S
O2710     Zr2715   2.371       .  S
O2710     Zr2716   2.390       .  S
O2710      H2745   0.963       .  S
O2711     Zr2714   2.414       .  S
O2711      H2748   0.965       .  S
O2712     Zr2715   2.395       .  S
O2712     Zr2731   2.373       .  S
Zr2713     O2738   2.439       .  S
Zr2713     O2732   2.454       .  S
Zr2713     O2740   2.423       .  S
Zr2713     O2728   2.406       .  S
Zr2713     O2719   2.397       .  S
Zr2713     O2720   2.417       .  S
Zr2713     O2721   2.371       .  S
Zr2713     O2722   2.388       .  S
Zr2714     O2733   2.443       .  S
Zr2714     O2726   2.436       .  S
Zr2715     O2717   2.435   1_655  S
Zr2715     O2739   2.439       .  S
Zr2715     O2741   2.437       .  S
Zr2715     O2719   2.390       .  S
Zr2715     O2722   2.381       .  S
Zr2716     O2742   2.434       .  S
Zr2716     O2743   2.435       .  S
Zr2716     O2718   2.439       .  S
Zr2716     O2719   2.406       .  S
Zr2716     O2720   2.413       .  S
O2717      H2754   0.989       .  S
O2718      H2749   0.991       .  S
O2718      H2763   0.989       .  S
O2720      H2746   0.965       .  S
O2721     Zr2731   2.365       .  S
O2722     Zr2731   2.384       .  S
O2722      H2747   0.966       .  S
C2723      C2869   1.489       .  S
C2724      C2845   1.473       .  S
C2725      C2810   1.468       .  S
O2726      H2762   0.989       .  S
O2727      C2729   1.281       .  A
O2728      C2729   1.274       .  A
C2729      C2896   1.472       .  S
O2730      H2759   0.990       .  S
Zr2731     O2735   2.437       .  S
Zr2731     O2736   2.395       .  S
O2732      C2737   1.287       .  A
O2733      H2750   0.991       .  S
O2733      H2765   0.992       .  S
O2734      H2751   0.991       .  S
O2735      H2755   0.990   1_655  S
O2735      H2764   0.990   1_655  S
O2736      C2737   1.278       .  A
C2737      C2920   1.473       .  S
O2738      H2757   0.990       .  S
O2738      H2761   0.988       .  S
O2739      H2753   0.990   1_655  S
O2739      H2760   0.990       .  S
O2740      C2744   1.281       .  A
O2741      C2744   1.288       .  A
O2742      H2752   0.991       .  S
O2743      H2756   0.992       .  S
C2744      C2791   1.474       .  S
Zr2767     O2768   2.441       .  S
Zr2767     O2769   2.418       .  S
Zr2767     O2770   2.477       .  S
Zr2767     O2773   2.424       .  S
Zr2767     O2775   2.385       .  S
Zr2767     O2776   2.402       .  S
Zr2767     O2777   2.397       .  S
Zr2767     O2778   2.421       .  S
O2768      H2824   0.990       .  S
O2768      H2832   0.991       .  S
O2769      C2789   1.282       .  A
O2770      C2791   1.291       .  A
O2771     Zr2781   2.420       .  S
O2771      C2790   1.277       .  A
O2772     Zr2780   2.398       .  S
O2772      C2791   1.278       .  A
O2773      C2790   1.279       .  A
O2774     Zr2782   2.429       .  S
O2774      C2789   1.284       .  A
O2775     Zr2780   2.383       .  S
O2775     Zr2782   2.382       .  S
O2776     Zr2781   2.406       .  S
O2776     Zr2782   2.348       .  S
O2776      H2811   0.961       .  S
O2777     Zr2780   2.410       .  S
O2777     Zr2797   2.406       .  S
O2777      H2814   0.965       .  S
O2778     Zr2781   2.400       .  S
O2778     Zr2797   2.402       .  S
Zr2779     O2804   2.439       .  S
Zr2779     O2798   2.429       .  S
Zr2779     O2806   2.426       .  S
Zr2779     O2794   2.416   1_655  S
Zr2779     O2785   2.393       .  S
Zr2779     O2786   2.411       .  S
Zr2779     O2787   2.367       .  S
Zr2779     O2788   2.391       .  S
Zr2780     O2799   2.438       .  S
Zr2780     O2792   2.434   1_655  S
Zr2780     O2793   2.399   1_655  S
Zr2780     O2786   2.403       .  S
Zr2780     O2787   2.356       .  S
Zr2781     O2783   2.434       .  S
Zr2781     O2805   2.443       .  S
Zr2781     O2807   2.429       .  S
Zr2781     O2785   2.404       .  S
Zr2781     O2788   2.382       .  S
Zr2782     O2808   2.435       .  S
Zr2782     O2809   2.437       .  S
Zr2782     O2784   2.436       .  S
Zr2782     O2785   2.405       .  S
Zr2782     O2786   2.382       .  S
O2783      H2820   0.991       .  S
O2784      H2815   0.992   1_655  S
O2784      H2829   0.990       .  S
O2786      H2812   0.966       .  S
O2787     Zr2797   2.371       .  S
O2788     Zr2797   2.399       .  S
O2788      H2813   0.965       .  S
C2789      C2908   1.474       .  S
C2790      C2884   1.481       .  S
O2792      H2828   0.990       .  S
O2793      C2795   1.279       .  A
O2794      C2795   1.281       .  A
C2795      C2836   1.472       .  S
O2796     Zr2797   2.436       .  S
O2796      H2825   0.991       .  S
Zr2797     O2800   2.438       .  S
Zr2797     O2801   2.442       .  S
Zr2797     O2802   2.432       .  S
O2798      C2803   1.277       .  A
O2799      H2816   0.989   1_655  S
O2799      H2831   0.990       .  S
O2800      H2817   0.990       .  S
O2801      H2821   0.989       .  S
O2801      H2830   0.987       .  S
O2802      C2803   1.279       .  A
C2803      C2857   1.483       .  S
O2804      H2823   0.988   1_655  S
O2804      H2827   0.991   1_655  S
O2805      H2819   0.992       .  S
O2805      H2826   0.988       .  S
O2806      C2810   1.282       .  A
O2807      C2810   1.283       .  A
O2808      H2818   0.989       .  S
O2809      H2822   0.988       .  S
C2833      C2834   1.404       .  A
C2833      C2838   1.408       .  A
C2834      C2835   1.387       .  A
C2834      H2839   1.084       .  S
C2835      C2836   1.409       .  A
C2835      O2840   1.371       .  S
C2836      C2837   1.406       .  A
C2837      C2838   1.393       .  A
C2837      H2841   1.083       .  S
C2838      O2842   1.371       .  S
O2840      H2844   0.992       .  S
O2842      H2843   0.990       .  S
C2845      C2846   1.403       .  A
C2845      C2850   1.411       .  A
C2846      C2847   1.396       .  A
C2846      H2851   1.083       .  S
C2847      C2848   1.412       .  A
C2847      O2852   1.371       .  S
C2848      C2849   1.403       .  A
C2849      C2850   1.388       .  A
C2849      H2853   1.084   1_556  S
C2850      O2854   1.371   1_556  S
O2852      H2856   0.990       .  S
C2857      C2858   1.410   1_655  A
C2857      C2862   1.406   1_655  A
C2858      C2859   1.404       .  A
C2858      H2863   1.083   1_455  S
C2859      C2860   1.407       .  A
C2859      O2864   1.372       .  S
C2860      C2861   1.412       .  A
C2861      C2862   1.394       .  A
C2861      H2865   1.083       .  S
C2862      O2866   1.371   1_455  S
O2864      H2868   0.991       .  S
O2866      H2867   0.990       .  S
C2869      C2870   1.403       .  A
C2870      C2871   1.398   1_655  A
C2870      H2875   1.083       .  S
C2871      O2876   1.372       .  S
C2872      C2873   1.405       .  A
C2873      C2874   1.403       .  A
C2873      H2877   1.083       .  S
C2874      O2878   1.371   1_455  S
O2876      H2880   0.989       .  S
O2878      H2879   0.990       .  S
C2881      C2882   1.400       .  A
C2881      C2886   1.417       .  A
C2882      C2883   1.399       .  A
C2882      H2887   1.082       .  S
C2883      C2884   1.418       .  A
C2883      O2888   1.372       .  S
C2884      C2885   1.400       .  A
C2885      C2886   1.393       .  A
C2885      H2889   1.083       .  S
C2886      O2890   1.373       .  S
O2888      H2892   0.991       .  S
O2890      H2891   0.990       .  S
C2893      C2894   1.411       .  A
C2893      C2898   1.405       .  A
C2894      C2895   1.389       .  A
C2894      H2899   1.083   1_556  S
C2895      C2896   1.405       .  A
C2896      C2897   1.406       .  A
C2897      C2898   1.400       .  A
C2897      H2901   1.082       .  S
C2898      O2902   1.372       .  S
O2900      H2904   0.992       .  S
O2902      H2903   0.991       .  S
C2905      C2906   1.403       .  A
C2905      C2910   1.412       .  A
C2906      C2907   1.396       .  A
C2906      H2911   1.084       .  S
C2907      C2908   1.411       .  A
C2907      O2912   1.372       .  S
C2908      C2909   1.403       .  A
C2909      C2910   1.395       .  A
C2909      H2913   1.084       .  S
C2910      O2914   1.373       .  S
O2912      H2916   0.992       .  S
O2914      H2915   0.993       .  S
C2917      C2918   1.401       .  A
C2917      C2922   1.419       .  A
C2918      C2919   1.391       .  A
C2919      C2920   1.411       .  A
C2919      O2924   1.373   1_556  S
C2920      C2921   1.400       .  A
C2921      C2922   1.403       .  A
C2921      H2925   1.083       .  S
C2922      O2926   1.372       .  S
O2926      H2927   0.991       .  S
C2929      C2930   1.407       .  A
C2929      C2934   1.408       .  A
C2930      C2931   1.394       .  A
C2930      H2935   1.083       .  S
C2931      C2932   1.411       .  A
C2931      O2936   1.373       .  S
C2932      C2933   1.408       .  A
C2933      C2934   1.404       .  A
C2933      H2937   1.078       .  S
C2934      O2938   1.371       .  S
O2936      H2940   0.991       .  S
O2938      H2939   0.992       .  S
C2941      C2942   1.412       .  A
C2941      C2946   1.402       .  A
C2942      C2943   1.399       .  A
C2942      H2947   1.083       .  S
C2943      C2944   1.402       .  A
C2943      O2948   1.373       .  S
C2944      C2945   1.408       .  A
C2945      C2946   1.385       .  A
C2945      H2949   1.081       .  S
C2946      O2950   1.372       .  S
O2948      H2952   0.993       .  S
O2950      H2951   0.991       .  S
C2953      C2954   1.406       .  A
C2953      C2958   1.415       .  A
C2954      C2955   1.405       .  A
C2954      H2959   1.083       .  S
C2955      C2956   1.416       .  A
C2955      O2960   1.371       .  S
C2956      C2957   1.404       .  A
C2957      C2958   1.393       .  A
C2957      H2961   1.084       .  S
C2958      O2962   1.372       .  S
O2960      H2964   0.989       .  S
O2962      H2963   0.991       .  S
C2965      C2970   1.399       .  A
C2966      C2967   1.392       .  A
C2966      H2971   1.084       .  S
C2967      O2972   1.372       .  S
C2968      C2969   1.407       .  A
C2969      C2970   1.388       .  A
C2969      H2973   1.084       .  S
C2970      O2974   1.373       .  S
O2972      H2976   0.992       .  S
O2974      H2975   0.990       .  S
C2977      C2978   1.408       .  A
C2977      C2982   1.410       .  A
C2978      C2979   1.391       .  A
C2978      H2983   1.083       .  S
C2979      C2980   1.401       .  A
C2979      O2984   1.371       .  S
C2980      C2981   1.405       .  A
C2981      C2982   1.394       .  A
C2981      H2985   1.084       .  S
C2982      O2986   1.371       .  S
O2984      H2988   0.990       .  S
O2986      H2987   0.989       .  S
C2989      C2990   1.409       .  A
C2989      C2994   1.412       .  A
C2990      C2991   1.405       .  A
C2990      H2995   1.083   1_556  S
C2991      C2992   1.405       .  A
C2991      O2996   1.369   1_556  S
C2992      C2993   1.396       .  A
C2993      C2994   1.384       .  A
C2993      H2997   1.085       .  S
C2994      O2998   1.373       .  S
O2996      H3000   0.991       .  S
O2998      H2999   0.989       .  S
C3001      C3002   1.403       .  A
C3001      C3006   1.406       .  A
C3002      C3003   1.400       .  A
C3002      H3007   1.080       .  S
C3003      C3004   1.409       .  A
C3003      O3008   1.374       .  S
C3004      C3005   1.412       .  A
C3005      C3006   1.394       .  A
C3005      H3009   1.083       .  S
C3006      O3010   1.372       .  S
O3008      H3012   0.993       .  S
O3010      H3011   0.994       .  S
C3013      C3014   1.404       .  A
C3013      C3018   1.396       .  A
C3014      C3015   1.397       .  A
C3014      H3019   1.085       .  S
C3015      C3016   1.402       .  A
C3015      O3020   1.371       .  S
C3016      C3017   1.400       .  A
C3017      C3018   1.391       .  A
C3017      H3021   1.082       .  S
C3018      O3022   1.370       .  S
O3020      H3024   0.991       .  S
O3022      H3023   0.993       .  S
