geometry optimzed in LAMMPS
_audit_creation_date              2020-12-01 
_audit_creation_method            'lammps2cif' 
_symmetry_space_group_name_H-M    'P1' 
_symmetry_Int_Tables_number       1 
_symmetry_cell_setting            triclinic 
loop_ 
_symmetry_equiv_pos_as_xyz 
  x,y,z 
_cell_length_a                    32.49890326 
_cell_length_b                    32.234332602819606 
_cell_length_c                    37.837017288908946 
_cell_angle_alpha                 93.08023956753564 
_cell_angle_beta                  90.11547964858396 
_cell_angle_gamma                 90.01246491190346 
loop_ 
_atom_site_label 
_atom_site_type_symbol 
_atom_site_fract_x 
_atom_site_fract_y 
_atom_site_fract_z 
_atom_site_charge 
C1          C  0.15628740  0.00845662  0.03650651     0.88100
C2          C  0.12685358  0.04413722  0.03003068    -0.52200
C3          C  0.10354589  0.03749124  0.33358159     0.11000
C4          C  0.11133844  0.49554933  0.31323455     0.22000
C5          C  0.12887389  0.47030017  0.03746849    -0.52900
C6          C  0.10461077  0.46294124  0.34135861     0.11100
C7          C  0.18152935  0.00218373  0.00267639    -0.52400
C8          C  0.15814179  0.99569641  0.30630697     0.11700
H9          H  0.12397288  0.07171587  0.04766706     0.16200
H10         H  0.09236229  0.49073191  0.28895166     0.01900
H11         H  0.12785861  0.45237538  0.06084527     0.16500
H12         H  0.21491716  0.00403445  0.33543028     0.16300
O13         O  0.32534809  0.47355092  0.13146512    -0.72800
O14         O  0.24197889  0.46512264  0.20210015    -0.72900
O15         O  0.24270361  0.47473004  0.13121831    -0.72900
O16         O  0.32549691  0.46399424  0.20235582    -0.73000
O17         O  0.32645708  0.03295330  0.21193948    -0.72900
O18         O  0.24359012  0.04372814  0.14074595    -0.72900
O19         O  0.24286630  0.03407863  0.21172014    -0.72900
O20         O  0.32632477  0.04255294  0.14096430    -0.72900
Ni21       Ni  0.28384663  0.46687713  0.16652070     1.25400
Ni22       Ni  0.28484298  0.04080612  0.17680587     1.25400
C23         C  0.33861627  0.00942543  0.12406898     0.89300
C24         C  0.22879207  0.99824299  0.21846387     0.89300
C25         C  0.23045495  0.01096448  0.12376978     0.89300
C26         C  0.33952973  0.99676466  0.21876801     0.89500
C27         C  0.41265307  0.50607791  0.03689194     0.88100
C28         C  0.44078310  0.46845696  0.03779990    -0.52200
C29         C  0.46488412  0.46155393  0.34160594     0.11000
C30         C  0.45725047  0.99399025  0.31348314     0.22000
C31         C  0.44134303  0.04230286  0.03029628    -0.52900
C32         C  0.46446135  0.03607986  0.33378518     0.11100
C33         C  0.38718491  0.49928667  0.00314240    -0.52400
C34         C  0.41038482  0.49322995  0.30669915     0.11700
H35         H  0.44237971  0.45058641  0.06119112     0.16200
H36         H  0.47606730  0.98953512  0.28914161     0.01900
H37         H  0.44388228  0.06995674  0.04790057     0.16500
H38         H  0.35376716  0.50060197  0.33599237     0.16300
C39         C  0.03297866  0.11684858  0.29246747     0.88100
C40         C  0.07073075  0.08844181  0.29480737    -0.52200
C41         C  0.07079591  0.06628130  0.99123402     0.11000
C42         C  0.03370166  0.07431487  0.01552758     0.22000
C43         C  0.49584977  0.08765610  0.29490480    -0.52900
C44         C  0.49654488  0.06550131  0.99132836     0.11100
C45         C  0.03287609  0.14375818  0.32720075    -0.52400
C46         C  0.03326083  0.12126170  0.02327394     0.11700
H47         H  0.09510288  0.08629736  0.27519331     0.16200
H48         H  0.03400735  0.05605025  0.03964144     0.01900
H49         H  0.47132833  0.08500379  0.27536569     0.16500
H50         H  0.03256817  0.17752054  0.99508684     0.16300
O51         O  0.06943239  0.28521786  0.12618575    -0.72800
O52         O  0.06773950  0.20943004  0.20051338    -0.72900
O53         O  0.06820746  0.20244935  0.12880148    -0.72900
O54         O  0.06888769  0.29381145  0.19807220    -0.73000
O55         O  0.50020135  0.29471498  0.19759690    -0.72900
O56         O  0.49945963  0.20338242  0.12833813    -0.72900
O57         O  0.49901814  0.21031407  0.20006238    -0.72900
O58         O  0.50067072  0.28614951  0.12570712    -0.72900
Ni59       Ni  0.07103623  0.24775272  0.16361261     1.25400
Ni60       Ni  0.49736197  0.24873442  0.16310889     1.25400
C61         C  0.03531354  0.29663255  0.11293887     0.89300
C62         C  0.03312548  0.19680663  0.21188707     0.89300
C63         C  0.03373041  0.18911865  0.11638626     0.89300
C64         C  0.03465996  0.30944528  0.20896590     0.89500
C65         C  0.03573862  0.37020791  0.02855190     0.88100
C66         C  0.07271925  0.39896995  0.03066614    -0.52200
C67         C  0.07283373  0.42902539  0.33972749     0.11000
C68         C  0.03495746  0.42579526  0.31445052     0.22000
C69         C  0.99826379  0.39827213  0.03080596    -0.52900
C70         C  0.99731315  0.42830359  0.33987432     0.11100
C71         C  0.03570320  0.35115934  0.99107483    -0.52400
C72         C  0.03529192  0.37986870  0.29926698     0.11700
H73         H  0.09653252  0.39519721  0.05029622     0.16200
H74         H  0.03462465  0.44909650  0.29399431     0.01900
H75         H  0.47472839  0.39405169  0.05051801     0.16500
H76         H  0.03593231  0.31783817  0.31818669     0.16300
C77         C  0.03489333  0.34291370  0.23584285    -0.11700
C78         C  0.03506513  0.36546134  0.26244498    -0.13200
C79         C  0.03589001  0.32053994  0.08230347    -0.11700
C80         C  0.03606648  0.34079807  0.05657610    -0.13200
C81         C  0.03260858  0.16664760  0.23839904    -0.11700
C82         C  0.03260413  0.14236947  0.26154223    -0.13200
C83         C  0.03337217  0.14040899  0.05849188    -0.11700
C84         C  0.03352594  0.15994037  0.08651342    -0.13200
C85         C  0.36955425  0.49288135  0.24635863    -0.11700
C86         C  0.39120106  0.49141243  0.27222582    -0.13200
C87         C  0.38783153  0.51178077  0.06907338    -0.11700
C88         C  0.36656383  0.51240056  0.09511816    -0.13200
C89         C  0.19864602  0.99508110  0.24594781    -0.11700
C90         C  0.17705743  0.99386856  0.27179480    -0.13200
C91         C  0.20265306  0.01472692  0.09471134    -0.11700
C92         C  0.18132164  0.01443938  0.06863666    -0.13200
C93         C  0.15628733  0.00845679  0.36984010     0.88100
C94         C  0.12685358  0.04413731  0.36336422    -0.52200
C95         C  0.10354582  0.03749119  0.66691489     0.11000
C96         C  0.11133840  0.49554930  0.64656781     0.22000
C97         C  0.12887385  0.47030010  0.37080189    -0.52900
C98         C  0.10461081  0.46294119  0.67469186     0.11100
C99         C  0.18152931  0.00218378  0.33600990    -0.52400
C100        C  0.15814184  0.99569630  0.63964028     0.11700
H101        H  0.12397264  0.07171728  0.38100153     0.16200
H102        H  0.09236224  0.49073180  0.62228494     0.01900
H103        H  0.12785863  0.45237512  0.39417863     0.16500
H104        H  0.21491724  0.00403488  0.66876357     0.16300
O105        O  0.32534807  0.47355099  0.46479844    -0.72800
O106        O  0.24197888  0.46512272  0.53543344    -0.72900
O107        O  0.24270359  0.47473014  0.46455162    -0.72900
O108        O  0.32549692  0.46399431  0.53568919    -0.73000
O109        O  0.32645714  0.03295329  0.54527283    -0.72900
O110        O  0.24359004  0.04372819  0.47407923    -0.72900
O111        O  0.24286627  0.03407848  0.54505346    -0.72900
O112        O  0.32632475  0.04255293  0.47429763    -0.72900
Ni113      Ni  0.28384662  0.46687722  0.49985402     1.25400
Ni114      Ni  0.28484295  0.04080610  0.51013920     1.25400
C115        C  0.33861625  0.00942536  0.45740229     0.89300
C116        C  0.22879206  0.99824289  0.55179718     0.89300
C117        C  0.23045494  0.01096457  0.45710305     0.89300
C118        C  0.33952971  0.99676467  0.55210137     0.89500
C119        C  0.41265307  0.50607818  0.37022526     0.88100
C120        C  0.44078322  0.46845711  0.37113313    -0.52200
C121        C  0.46488406  0.46155379  0.67493922     0.11000
C122        C  0.45725042  0.99399007  0.64681648     0.22000
C123        C  0.44134304  0.04230298  0.36362966    -0.52900
C124        C  0.46446132  0.03607958  0.66711845     0.11100
C125        C  0.38718490  0.49928672  0.33647583    -0.52400
C126        C  0.41038479  0.49322992  0.64003238     0.11700
H127        H  0.44237966  0.45058740  0.39452329     0.16200
H128        H  0.47606735  0.98953479  0.62247486     0.01900
H129        H  0.44388229  0.06995692  0.38123400     0.16500
H130        H  0.35376717  0.50060243  0.66932566     0.16300
C131        C  0.03297865  0.11684850  0.62580080     0.88100
C132        C  0.07073068  0.08844173  0.62814069    -0.52200
C133        C  0.07079589  0.06628127  0.32456746     0.11000
C134        C  0.03370166  0.07431500  0.34886096     0.22000
C135        C  0.49584965  0.08765599  0.62823818    -0.52900
C136        C  0.49654511  0.06550127  0.32466181     0.11100
C137        C  0.03287603  0.14375802  0.66053403    -0.52400
C138        C  0.03326088  0.12126193  0.35660737     0.11700
H139        H  0.09510292  0.08629727  0.60852662     0.16200
H140        H  0.03400725  0.05605003  0.37297498     0.01900
H141        H  0.47132762  0.08500329  0.60869859     0.16500
H142        H  0.03256833  0.17752178  0.32842037     0.16300
O143        O  0.06943239  0.28521786  0.45951921    -0.72800
O144        O  0.06773951  0.20943008  0.53384688    -0.72900
O145        O  0.06820744  0.20244945  0.46213495    -0.72900
O146        O  0.06888768  0.29381152  0.53140566    -0.73000
O147        O  0.50020134  0.29471510  0.53093042    -0.72900
O148        O  0.49945963  0.20338244  0.46167153    -0.72900
O149        O  0.49901815  0.21031406  0.53339585    -0.72900
O150        O  0.50067071  0.28614962  0.45904057    -0.72900
Ni151      Ni  0.07103623  0.24775276  0.49694605     1.25400
Ni152      Ni  0.49736198  0.24873447  0.49644231     1.25400
C153        C  0.03531354  0.29663249  0.44627225     0.89300
C154        C  0.03312548  0.19680661  0.54522051     0.89300
C155        C  0.03373041  0.18911871  0.44971969     0.89300
C156        C  0.03465995  0.30944545  0.54229931     0.89500
C157        C  0.03573848  0.37020797  0.36188517     0.88100
C158        C  0.07271924  0.39897003  0.36399945    -0.52200
C159        C  0.07283376  0.42902532  0.67306104     0.11000
C160        C  0.03495747  0.42579521  0.64778392     0.22000
C161        C  0.99826368  0.39827221  0.36413929    -0.52900
C162        C  0.99731313  0.42830356  0.67320773     0.11100
C163        C  0.03570307  0.35115934  0.32440809    -0.52400
C164        C  0.03529203  0.37986864  0.63260043     0.11700
H165        H  0.09653168  0.39519734  0.38362914     0.16200
H166        H  0.03462463  0.44909615  0.62732805     0.01900
H167        H  0.47472860  0.39405189  0.38385131     0.16500
H168        H  0.03593242  0.31783853  0.65152044     0.16300
C169        C  0.03489329  0.34291374  0.56917627    -0.11700
C170        C  0.03506512  0.36546127  0.59577842    -0.13200
C171        C  0.03588997  0.32053990  0.41563684    -0.11700
C172        C  0.03606635  0.34079804  0.38990942    -0.13200
C173        C  0.03260856  0.16664750  0.57173232    -0.11700
C174        C  0.03260406  0.14236943  0.59487553    -0.13200
C175        C  0.03337215  0.14040896  0.39182533    -0.11700
C176        C  0.03352591  0.15994046  0.41984679    -0.13200
C177        C  0.36955418  0.49288141  0.57969198    -0.11700
C178        C  0.39120101  0.49141250  0.60555913    -0.13200
C179        C  0.38783155  0.51178085  0.40240674    -0.11700
C180        C  0.36656381  0.51240054  0.42845149    -0.13200
C181        C  0.19864602  0.99508094  0.57928110    -0.11700
C182        C  0.17705743  0.99386857  0.60512810    -0.13200
C183        C  0.20265304  0.01472698  0.42804475    -0.11700
C184        C  0.18132165  0.01443928  0.40197010    -0.13200
C185        C  0.15628736  0.00845678  0.70317338     0.88100
C186        C  0.12685357  0.04413727  0.69669747    -0.52200
C187        C  0.10354583  0.03749107  0.00024792     0.11000
C188        C  0.11133843  0.49554923  0.97990115     0.22000
C189        C  0.12887400  0.47030009  0.70413513    -0.52900
C190        C  0.10461070  0.46294122  0.00802525     0.11100
C191        C  0.18152934  0.00218379  0.66934321    -0.52400
C192        C  0.15814177  0.99569620  0.97297348     0.11700
H193        H  0.12397264  0.07171722  0.71433474     0.16200
H194        H  0.09236212  0.49073164  0.95561816     0.01900
H195        H  0.12785871  0.45237572  0.72751161     0.16500
H196        H  0.21491716  0.00403437  0.00209669     0.16300
O197        O  0.32534807  0.47355092  0.79813178    -0.72800
O198        O  0.24197885  0.46512254  0.86876675    -0.72900
O199        O  0.24270358  0.47473001  0.79788493    -0.72900
O200        O  0.32549692  0.46399423  0.86902249    -0.73000
O201        O  0.32645713  0.03295327  0.87860615    -0.72900
O202        O  0.24359002  0.04372818  0.80741254    -0.72900
O203        O  0.24286626  0.03407855  0.87838679    -0.72900
O204        O  0.32632475  0.04255287  0.80763094    -0.72900
Ni205      Ni  0.28384660  0.46687713  0.83318734     1.25400
Ni206      Ni  0.28484293  0.04080611  0.84347253     1.25400
C207        C  0.33861630  0.00942534  0.79073563     0.89300
C208        C  0.22879205  0.99824296  0.88513049     0.89300
C209        C  0.23045489  0.01096456  0.79043638     0.89300
C210        C  0.33952964  0.99676463  0.88543470     0.89500
C211        C  0.41265308  0.50607791  0.70355848     0.88100
C212        C  0.44078318  0.46845691  0.70446644    -0.52200
C213        C  0.46488402  0.46155378  0.00827284     0.11000
C214        C  0.45725045  0.99399012  0.98014987     0.22000
C215        C  0.44134301  0.04230272  0.69696296    -0.52900
C216        C  0.46446130  0.03607977  0.00045181     0.11100
C217        C  0.38718487  0.49928665  0.66980909    -0.52400
C218        C  0.41038483  0.49322997  0.97336575     0.11700
H219        H  0.44237965  0.45058728  0.72785663     0.16200
H220        H  0.47606734  0.98953511  0.95580829     0.01900
H221        H  0.44388207  0.06995635  0.71456683     0.16500
H222        H  0.35376719  0.50060270  0.00265879     0.16300
C223        C  0.03297861  0.11684840  0.95913402     0.88100
C224        C  0.07073067  0.08844173  0.96147391    -0.52200
C225        C  0.07079586  0.06628125  0.65790085     0.11000
C226        C  0.03370160  0.07431490  0.68219428     0.22000
C227        C  0.49584968  0.08765598  0.96157138    -0.52900
C228        C  0.49654492  0.06550115  0.65799513     0.11100
C229        C  0.03287595  0.14375805  0.99386729    -0.52400
C230        C  0.03326085  0.12126179  0.68994068     0.11700
H231        H  0.09510290  0.08629731  0.94185987     0.16200
H232        H  0.03400724  0.05604971  0.70630875     0.01900
H233        H  0.47132751  0.08500362  0.94203192     0.16500
H234        H  0.03256824  0.17752171  0.66175363     0.16300
O235        O  0.06943237  0.28521783  0.79285260    -0.72800
O236        O  0.06773949  0.20942991  0.86718015    -0.72900
O237        O  0.06820747  0.20244935  0.79546815    -0.72900
O238        O  0.06888764  0.29381130  0.86473898    -0.73000
O239        O  0.50020137  0.29471497  0.86426368    -0.72900
O240        O  0.49945966  0.20338236  0.79500486    -0.72900
O241        O  0.49901814  0.21031391  0.86672923    -0.72900
O242        O  0.50067073  0.28614949  0.79237391    -0.72900
Ni243      Ni  0.07103622  0.24775264  0.83027934     1.25400
Ni244      Ni  0.49736201  0.24873436  0.82977566     1.25400
C245        C  0.03531354  0.29663239  0.77960558     0.89300
C246        C  0.03312546  0.19680653  0.87855387     0.89300
C247        C  0.03373044  0.18911858  0.78305298     0.89300
C248        C  0.03465986  0.30944532  0.87563261     0.89500
C249        C  0.03573853  0.37020805  0.69521869     0.88100
C250        C  0.07271926  0.39897003  0.69733293    -0.52200
C251        C  0.07283376  0.42902524  0.00639422     0.11000
C252        C  0.03495744  0.42579514  0.98111718     0.22000
C253        C  0.99826362  0.39827229  0.69747270    -0.52900
C254        C  0.99731315  0.42830348  0.00654102     0.11100
C255        C  0.03570322  0.35115931  0.65774157    -0.52400
C256        C  0.03529200  0.37986857  0.96593369     0.11700
H257        H  0.09653215  0.39519754  0.71696332     0.16200
H258        H  0.03462461  0.44909630  0.96066095     0.01900
H259        H  0.47472832  0.39405188  0.71718463     0.16500
H260        H  0.03593237  0.31783754  0.98485342     0.16300
C261        C  0.03489314  0.34291379  0.90250952    -0.11700
C262        C  0.03506510  0.36546133  0.92911169    -0.13200
C263        C  0.03588998  0.32054003  0.74897031    -0.11700
C264        C  0.03606637  0.34079805  0.72324282    -0.13200
C265        C  0.03260842  0.16664752  0.90506569    -0.11700
C266        C  0.03260406  0.14236950  0.92820892    -0.13200
C267        C  0.03337218  0.14040907  0.72515854    -0.11700
C268        C  0.03352595  0.15994040  0.75318008    -0.13200
C269        C  0.36955420  0.49288125  0.91302526    -0.11700
C270        C  0.39120107  0.49141254  0.93889243    -0.13200
C271        C  0.38783167  0.51178076  0.73574006    -0.11700
C272        C  0.36656386  0.51240065  0.76178479    -0.13200
C273        C  0.19864604  0.99508103  0.91261442    -0.11700
C274        C  0.17705742  0.99386846  0.93846138    -0.13200
C275        C  0.20265300  0.01472710  0.76137802    -0.11700
C276        C  0.18132157  0.01443926  0.73530340    -0.13200
C277        C  0.15628733  0.50845671  0.03650665     0.88100
C278        C  0.12685353  0.54413733  0.03003077    -0.52200
C279        C  0.10354591  0.53749129  0.33358153     0.11000
C280        C  0.11133832  0.99554927  0.31323455     0.22000
C281        C  0.12887395  0.97030012  0.03746848    -0.52900
C282        C  0.10461082  0.96294116  0.34135860     0.11100
C283        C  0.18152938  0.50218367  0.00267646    -0.52400
C284        C  0.15814184  0.49569632  0.30630699     0.11700
H285        H  0.12397292  0.57171698  0.04766734     0.16200
H286        H  0.09236211  0.99073183  0.28895181     0.01900
H287        H  0.12785889  0.95237567  0.06084483     0.16500
H288        H  0.21491699  0.50403482  0.33543028     0.16300
O289        O  0.32534806  0.97355097  0.13146521    -0.72800
O290        O  0.24197874  0.96512259  0.20210010    -0.72900
O291        O  0.24270354  0.97472996  0.13121830    -0.72900
O292        O  0.32549682  0.96399423  0.20235593    -0.73000
O293        O  0.32645697  0.53295329  0.21193956    -0.72900
O294        O  0.24359006  0.54372821  0.14074586    -0.72900
O295        O  0.24286622  0.53407857  0.21172008    -0.72900
O296        O  0.32632476  0.54255288  0.14096434    -0.72900
Ni297      Ni  0.28384655  0.96687711  0.16652073     1.25400
Ni298      Ni  0.28484294  0.54080613  0.17680585     1.25400
C299        C  0.33861642  0.50942537  0.12406906     0.89300
C300        C  0.22879207  0.49824296  0.21846388     0.89300
C301        C  0.23045487  0.51096454  0.12376981     0.89300
C302        C  0.33952965  0.49676467  0.21876806     0.89500
C303        C  0.41265301  0.00607787  0.03689185     0.88100
C304        C  0.44078311  0.96845688  0.03779982    -0.52200
C305        C  0.46488418  0.96155398  0.34160590     0.11000
C306        C  0.45725042  0.49399027  0.31348319     0.22000
C307        C  0.44134309  0.54230286  0.03029631    -0.52900
C308        C  0.46446126  0.53607997  0.33378532     0.11100
C309        C  0.38718497  0.99928665  0.00314237    -0.52400
C310        C  0.41038480  0.99323002  0.30669909     0.11700
H311        H  0.44237984  0.95058699  0.06119082     0.16200
H312        H  0.47606689  0.48953534  0.28914187     0.01900
H313        H  0.44388222  0.56995681  0.04790063     0.16500
H314        H  0.35376653  0.00060250  0.33599234     0.16300
C315        C  0.03297862  0.61684839  0.29246738     0.88100
C316        C  0.07073072  0.58844172  0.29480725    -0.52200
C317        C  0.07079587  0.56628130  0.99123403     0.11000
C318        C  0.03370165  0.57431501  0.01552756     0.22000
C319        C  0.49584966  0.58765603  0.29490480    -0.52900
C320        C  0.49654502  0.56550128  0.99132849     0.11100
C321        C  0.03287595  0.64375800  0.32720069    -0.52400
C322        C  0.03326090  0.62126195  0.02327396     0.11700
H323        H  0.09510287  0.58629727  0.27519326     0.16200
H324        H  0.03400753  0.55605002  0.03964158     0.01900
H325        H  0.47132825  0.58500340  0.27536562     0.16500
H326        H  0.03256871  0.67752185  0.99508703     0.16300
O327        O  0.06943235  0.78521773  0.12618577    -0.72800
O328        O  0.06773947  0.70942993  0.20051345    -0.72900
O329        O  0.06820751  0.70244933  0.12880153    -0.72900
O330        O  0.06888762  0.79381139  0.19807221    -0.73000
O331        O  0.50020129  0.79471497  0.19759698    -0.72900
O332        O  0.49945972  0.70338227  0.12833807    -0.72900
O333        O  0.49901804  0.71031393  0.20006240    -0.72900
O334        O  0.50067060  0.78614949  0.12570711    -0.72900
Ni335      Ni  0.07103615  0.74775268  0.16361266     1.25400
Ni336      Ni  0.49736191  0.74873437  0.16310889     1.25400
C337        C  0.03531350  0.79663246  0.11293889     0.89300
C338        C  0.03312543  0.69680658  0.21188715     0.89300
C339        C  0.03373052  0.68911856  0.11638624     0.89300
C340        C  0.03465987  0.80944528  0.20896585     0.89500
C341        C  0.03573880  0.87020798  0.02855197     0.88100
C342        C  0.07271947  0.89897005  0.03066623    -0.52200
C343        C  0.07283386  0.92902526  0.33972754     0.11000
C344        C  0.03495744  0.92579514  0.31445054     0.22000
C345        C  0.99826383  0.89827220  0.03080597    -0.52900
C346        C  0.99731320  0.92830360  0.33987422     0.11100
C347        C  0.03570324  0.85115929  0.99107489    -0.52400
C348        C  0.03529204  0.87986849  0.29926697     0.11700
H349        H  0.09653275  0.89519729  0.05029634     0.16200
H350        H  0.03462435  0.94909635  0.29399422     0.01900
H351        H  0.47472845  0.89405199  0.05051790     0.16500
H352        H  0.03593290  0.81783712  0.31818651     0.16300
C353        C  0.03489315  0.84291363  0.23584280    -0.11700
C354        C  0.03506501  0.86546125  0.26244494    -0.13200
C355        C  0.03588995  0.82053995  0.08230359    -0.11700
C356        C  0.03606641  0.84079799  0.05657614    -0.13200
C357        C  0.03260846  0.66664760  0.23839906    -0.11700
C358        C  0.03260401  0.64236949  0.26154223    -0.13200
C359        C  0.03337220  0.64040897  0.05849190    -0.11700
C360        C  0.03352585  0.65994039  0.08651336    -0.13200
C361        C  0.36955425  0.99288121  0.24635857    -0.11700
C362        C  0.39120106  0.99141251  0.27222578    -0.13200
C363        C  0.38783152  0.01178074  0.06907338    -0.11700
C364        C  0.36656387  0.01240060  0.09511819    -0.13200
C365        C  0.19864607  0.49508098  0.24594787    -0.11700
C366        C  0.17705741  0.49386850  0.27179482    -0.13200
C367        C  0.20265308  0.51472707  0.09471135    -0.11700
C368        C  0.18132165  0.51443925  0.06863669    -0.13200
C369        C  0.15628727  0.50845676  0.36984014     0.88100
C370        C  0.12685352  0.54413735  0.36336418    -0.52200
C371        C  0.10354589  0.53749127  0.66691475     0.11000
C372        C  0.11133836  0.99554923  0.64656786     0.22000
C373        C  0.12887388  0.97030020  0.37080188    -0.52900
C374        C  0.10461086  0.96294122  0.67469198     0.11100
C375        C  0.18152934  0.50218380  0.33600993    -0.52400
C376        C  0.15814185  0.49569633  0.63964024     0.11700
H377        H  0.12397270  0.57171748  0.38100129     0.16200
H378        H  0.09236213  0.99073146  0.62228506     0.01900
H379        H  0.12785909  0.95237502  0.39417854     0.16500
H380        H  0.21491703  0.50403493  0.66876354     0.16300
O381        O  0.32534806  0.97355084  0.46479847    -0.72800
O382        O  0.24197878  0.96512260  0.53543339    -0.72900
O383        O  0.24270348  0.97473006  0.46455161    -0.72900
O384        O  0.32549687  0.96399424  0.53568922    -0.73000
O385        O  0.32645702  0.53295335  0.54527291    -0.72900
O386        O  0.24358995  0.54372829  0.47407912    -0.72900
O387        O  0.24286625  0.53407863  0.54505342    -0.72900
O388        O  0.32632473  0.54255295  0.47429762    -0.72900
Ni389      Ni  0.28384656  0.96687709  0.49985402     1.25400
Ni390      Ni  0.28484290  0.54080619  0.51013916     1.25400
C391        C  0.33861639  0.50942542  0.45740237     0.89300
C392        C  0.22879208  0.49824303  0.55179718     0.89300
C393        C  0.23045485  0.51096463  0.45710307     0.89300
C394        C  0.33952977  0.49676474  0.55210135     0.89500
C395        C  0.41265303  0.00607804  0.37022518     0.88100
C396        C  0.44078316  0.96845698  0.37113304    -0.52200
C397        C  0.46488413  0.96155382  0.67493934     0.11000
C398        C  0.45725042  0.49399017  0.64681644     0.22000
C399        C  0.44134300  0.54230304  0.36362972    -0.52900
C400        C  0.46446131  0.53607979  0.66711847     0.11100
C401        C  0.38718497  0.99928679  0.33647580    -0.52400
C402        C  0.41038479  0.99323003  0.64003235     0.11700
H403        H  0.44237999  0.95058751  0.39452334     0.16200
H404        H  0.47606692  0.48953516  0.62247508     0.01900
H405        H  0.44388214  0.56995771  0.38123437     0.16500
H406        H  0.35376659  0.00060265  0.66932564     0.16300
C407        C  0.03297862  0.61684857  0.62580084     0.88100
C408        C  0.07073064  0.58844178  0.62814068    -0.52200
C409        C  0.07079588  0.56628127  0.32456742     0.11000
C410        C  0.03370166  0.57431482  0.34886100     0.22000
C411        C  0.49584975  0.58765610  0.62823823    -0.52900
C412        C  0.49654498  0.56550126  0.32466184     0.11100
C413        C  0.03287595  0.64375816  0.66053403    -0.52400
C414        C  0.03326091  0.62126164  0.35660739     0.11700
H415        H  0.09510274  0.58629749  0.60852669     0.16200
H416        H  0.03400752  0.55604985  0.37297496     0.01900
H417        H  0.47132840  0.58500362  0.60869905     0.16500
H418        H  0.03256868  0.67752052  0.32842024     0.16300
O419        O  0.06943233  0.78521776  0.45951919    -0.72800
O420        O  0.06773946  0.70942997  0.53384687    -0.72900
O421        O  0.06820744  0.70244932  0.46213486    -0.72900
O422        O  0.06888762  0.79381134  0.53140566    -0.73000
O423        O  0.50020130  0.79471500  0.53093037    -0.72900
O424        O  0.49945976  0.70338231  0.46167155    -0.72900
O425        O  0.49901803  0.71031397  0.53339592    -0.72900
O426        O  0.50067061  0.78614944  0.45904048    -0.72900
Ni427      Ni  0.07103613  0.74775265  0.49694601     1.25400
Ni428      Ni  0.49736193  0.74873437  0.49644232     1.25400
C429        C  0.03531350  0.79663248  0.44627229     0.89300
C430        C  0.03312543  0.69680652  0.54522054     0.89300
C431        C  0.03373045  0.68911853  0.44971971     0.89300
C432        C  0.03465988  0.80944532  0.54229928     0.89500
C433        C  0.03573877  0.87020781  0.36188511     0.88100
C434        C  0.07271940  0.89896995  0.36399944    -0.52200
C435        C  0.07283400  0.92902523  0.67306107     0.11000
C436        C  0.03495747  0.92579509  0.64778399     0.22000
C437        C  0.99826382  0.89827220  0.36413923    -0.52900
C438        C  0.99731314  0.92830348  0.67320781     0.11100
C439        C  0.03570323  0.85115925  0.32440807    -0.52400
C440        C  0.03529205  0.87986861  0.63260050     0.11700
H441        H  0.09653263  0.89519720  0.38362950     0.16200
H442        H  0.03462436  0.94909593  0.62732809     0.01900
H443        H  0.47472864  0.89405200  0.38385126     0.16500
H444        H  0.03593290  0.81783852  0.65152050     0.16300
C445        C  0.03489316  0.84291376  0.56917627    -0.11700
C446        C  0.03506502  0.86546128  0.59577846    -0.13200
C447        C  0.03588996  0.82053990  0.41563687    -0.11700
C448        C  0.03606642  0.84079796  0.38990941    -0.13200
C449        C  0.03260843  0.66664757  0.57173238    -0.11700
C450        C  0.03260400  0.64236949  0.59487557    -0.13200
C451        C  0.03337210  0.64040895  0.39182530    -0.11700
C452        C  0.03352593  0.65994043  0.41984678    -0.13200
C453        C  0.36955422  0.99288132  0.57969189    -0.11700
C454        C  0.39120102  0.99141252  0.60555907    -0.13200
C455        C  0.38783156  0.01178082  0.40240675    -0.11700
C456        C  0.36656385  0.01240059  0.42845151    -0.13200
C457        C  0.19864607  0.49508105  0.57928115    -0.11700
C458        C  0.17705742  0.49386857  0.60512809    -0.13200
C459        C  0.20265306  0.51472719  0.42804474    -0.11700
C460        C  0.18132164  0.51443929  0.40197011    -0.13200
C461        C  0.15628734  0.50845676  0.70317331     0.88100
C462        C  0.12685353  0.54413737  0.69669745    -0.52200
C463        C  0.10354596  0.53749122  0.00024801     0.11000
C464        C  0.11133828  0.99554914  0.97990108     0.22000
C465        C  0.12887400  0.97030024  0.70413524    -0.52900
C466        C  0.10461080  0.96294116  0.00802515     0.11100
C467        C  0.18152940  0.50218382  0.66934318    -0.52400
C468        C  0.15814181  0.49569634  0.97297353     0.11700
H469        H  0.12397265  0.57171668  0.71433432     0.16200
H470        H  0.09236193  0.99073126  0.95561822     0.01900
H471        H  0.12785913  0.95237521  0.72751197     0.16500
H472        H  0.21491698  0.50403476  0.00209670     0.16300
O473        O  0.32534805  0.97355091  0.79813179    -0.72800
O474        O  0.24197879  0.96512266  0.86876668    -0.72900
O475        O  0.24270350  0.97473005  0.79788492    -0.72900
O476        O  0.32549683  0.96399422  0.86902248    -0.73000
O477        O  0.32645702  0.53295329  0.87860617    -0.72900
O478        O  0.24358996  0.54372818  0.80741242    -0.72900
O479        O  0.24286625  0.53407847  0.87838669    -0.72900
O480        O  0.32632472  0.54255289  0.80763093    -0.72900
Ni481      Ni  0.28384656  0.96687713  0.83318731     1.25400
Ni482      Ni  0.28484291  0.54080609  0.84347245     1.25400
C483        C  0.33861643  0.50942537  0.79073572     0.89300
C484        C  0.22879207  0.49824286  0.88513048     0.89300
C485        C  0.23045480  0.51096449  0.79043641     0.89300
C486        C  0.33952977  0.49676466  0.88543463     0.89500
C487        C  0.41265302  0.00607782  0.70355852     0.88100
C488        C  0.44078315  0.96845693  0.70446645    -0.52200
C489        C  0.46488415  0.96155377  0.00827273     0.11000
C490        C  0.45725038  0.49399017  0.98014989     0.22000
C491        C  0.44134303  0.54230295  0.69696296    -0.52900
C492        C  0.46446133  0.53607981  0.00045186     0.11100
C493        C  0.38718495  0.99928660  0.66980911    -0.52400
C494        C  0.41038481  0.99322995  0.97336570     0.11700
H495        H  0.44237990  0.95058694  0.72785714     0.16200
H496        H  0.47606689  0.48953501  0.95580848     0.01900
H497        H  0.44388214  0.56995647  0.71456685     0.16500
H498        H  0.35376657  0.00060243  0.00265879     0.16300
C499        C  0.03297849  0.61684858  0.95913408     0.88100
C500        C  0.07073065  0.58844182  0.96147393    -0.52200
C501        C  0.07079585  0.56628127  0.65790084     0.11000
C502        C  0.03370166  0.57431486  0.68219432     0.22000
C503        C  0.49584969  0.58765611  0.96157151    -0.52900
C504        C  0.49654502  0.56550124  0.65799525     0.11100
C505        C  0.03287591  0.64375821  0.99386738    -0.52400
C506        C  0.03326092  0.62126182  0.68994069     0.11700
H507        H  0.09510280  0.58629766  0.94186001     0.16200
H508        H  0.03400753  0.55604968  0.70630871     0.01900
H509        H  0.47132831  0.58500373  0.94203237     0.16500
H510        H  0.03256868  0.67752171  0.66175364     0.16300
O511        O  0.06943235  0.78521789  0.79285254    -0.72800
O512        O  0.06773948  0.70942995  0.86718015    -0.72900
O513        O  0.06820745  0.70244938  0.79546824    -0.72900
O514        O  0.06888764  0.79381141  0.86473897    -0.73000
O515        O  0.50020131  0.79471495  0.86426368    -0.72900
O516        O  0.49945975  0.70338242  0.79500488    -0.72900
O517        O  0.49901804  0.71031401  0.86672914    -0.72900
O518        O  0.50067063  0.78614955  0.79237390    -0.72900
Ni519      Ni  0.07103614  0.74775269  0.83027935     1.25400
Ni520      Ni  0.49736193  0.74873439  0.82977563     1.25400
C521        C  0.03531351  0.79663244  0.77960557     0.89300
C522        C  0.03312543  0.69680658  0.87855381     0.89300
C523        C  0.03373045  0.68911872  0.78305299     0.89300
C524        C  0.03465989  0.80944517  0.87563275     0.89500
C525        C  0.03573882  0.87020808  0.69521878     0.88100
C526        C  0.07271951  0.89897007  0.69733293    -0.52200
C527        C  0.07283391  0.92902528  0.00639429     0.11000
C528        C  0.03495748  0.92579519  0.98111720     0.22000
C529        C  0.99826382  0.89827217  0.69747274    -0.52900
C530        C  0.99731321  0.92830354  0.00654098     0.11100
C531        C  0.03570324  0.85115942  0.65774166    -0.52400
C532        C  0.03529206  0.87986861  0.96593378     0.11700
H533        H  0.09653317  0.89519749  0.71696367     0.16200
H534        H  0.03462435  0.94909581  0.96066112     0.01900
H535        H  0.47472804  0.89405187  0.71718542     0.16500
H536        H  0.03593290  0.81783833  0.98485361     0.16300
C537        C  0.03489321  0.84291377  0.90250956    -0.11700
C538        C  0.03506504  0.86546132  0.92911175    -0.13200
C539        C  0.03589000  0.82054000  0.74897028    -0.11700
C540        C  0.03606645  0.84079799  0.72324279    -0.13200
C541        C  0.03260847  0.66664754  0.90506563    -0.11700
C542        C  0.03260402  0.64236953  0.92820889    -0.13200
C543        C  0.03337211  0.64040901  0.72515864    -0.11700
C544        C  0.03352593  0.65994045  0.75318015    -0.13200
C545        C  0.36955422  0.99288130  0.91302522    -0.11700
C546        C  0.39120098  0.99141241  0.93889243    -0.13200
C547        C  0.38783165  0.01178083  0.73574010    -0.11700
C548        C  0.36656388  0.01240044  0.76178480    -0.13200
C549        C  0.19864606  0.49508093  0.91261446    -0.11700
C550        C  0.17705739  0.49386854  0.93846140    -0.13200
C551        C  0.20265303  0.51472704  0.76137801    -0.11700
C552        C  0.18132158  0.51443930  0.73530340    -0.13200
C553        C  0.65628736  0.00845667  0.03650656     0.88100
C554        C  0.62685356  0.04413727  0.03003065    -0.52200
C555        C  0.60354596  0.03749131  0.33358153     0.11000
C556        C  0.61133849  0.49554937  0.31323456     0.22000
C557        C  0.62887393  0.47030021  0.03746850    -0.52900
C558        C  0.60461087  0.46294127  0.34135861     0.11100
C559        C  0.68152935  0.00218374  0.00267642    -0.52400
C560        C  0.65814177  0.99569639  0.30630699     0.11700
H561        H  0.62397251  0.07171598  0.04766710     0.16200
H562        H  0.59236235  0.49073194  0.28895165     0.01900
H563        H  0.62785905  0.45237518  0.06084510     0.16500
H564        H  0.71491685  0.00403443  0.33543030     0.16300
O565        O  0.82534811  0.47355092  0.13146512    -0.72800
O566        O  0.74197883  0.46512265  0.20210012    -0.72900
O567        O  0.74270353  0.47473002  0.13121827    -0.72900
O568        O  0.82549686  0.46399424  0.20235586    -0.73000
O569        O  0.82645702  0.03295329  0.21193953    -0.72900
O570        O  0.74359011  0.04372817  0.14074583    -0.72900
O571        O  0.74286628  0.03407863  0.21172007    -0.72900
O572        O  0.82632480  0.04255293  0.14096434    -0.72900
Ni573      Ni  0.78384659  0.46687713  0.16652068     1.25400
Ni574      Ni  0.78484298  0.04080612  0.17680583     1.25400
C575        C  0.83861644  0.00942541  0.12406911     0.89300
C576        C  0.72879210  0.99824300  0.21846387     0.89300
C577        C  0.73045490  0.01096448  0.12376976     0.89300
C578        C  0.83952968  0.99676465  0.21876805     0.89500
C579        C  0.91265309  0.50607791  0.03689196     0.88100
C580        C  0.94078310  0.46845695  0.03779989    -0.52200
C581        C  0.96488411  0.46155390  0.34160595     0.11000
C582        C  0.95725058  0.99399028  0.31348311     0.22000
C583        C  0.94134310  0.04230289  0.03029627    -0.52900
C584        C  0.96446137  0.03607994  0.33378513     0.11100
C585        C  0.88718498  0.49928671  0.00314240    -0.52400
C586        C  0.91038486  0.49322997  0.30669912     0.11700
H587        H  0.94237968  0.45058637  0.06119118     0.16200
H588        H  0.97606744  0.98953520  0.28914161     0.01900
H589        H  0.94388228  0.06995678  0.04790055     0.16500
H590        H  0.85376727  0.50060200  0.33599235     0.16300
C591        C  0.53297867  0.11684858  0.29246747     0.88100
C592        C  0.57073079  0.08844189  0.29480733    -0.52200
C593        C  0.57079592  0.06628130  0.99123401     0.11000
C594        C  0.53370164  0.07431487  0.01552753     0.22000
C595        C  0.99584975  0.08765617  0.29490477    -0.52900
C596        C  0.99654499  0.06550133  0.99132845     0.11100
C597        C  0.53287607  0.14375818  0.32720075    -0.52400
C598        C  0.53326086  0.12126169  0.02327391     0.11700
H599        H  0.59510279  0.08629736  0.27519324     0.16200
H600        H  0.53400747  0.05605026  0.03964141     0.01900
H601        H  0.97132834  0.08500384  0.27536560     0.16500
H602        H  0.53256813  0.17752052  0.99508683     0.16300
O603        O  0.56943243  0.28521788  0.12618573    -0.72800
O604        O  0.56773959  0.20943002  0.20051339    -0.72900
O605        O  0.56820756  0.20244933  0.12880146    -0.72900
O606        O  0.56888773  0.29381147  0.19807222    -0.73000
O607        O  0.00020132  0.29471500  0.19759692    -0.72900
O608        O  0.99945959  0.20338240  0.12833812    -0.72900
O609        O  0.99901810  0.21031406  0.20006239    -0.72900
O610        O  0.00067068  0.28614953  0.12570710    -0.72900
Ni611      Ni  0.57103625  0.24775272  0.16361260     1.25400
Ni612      Ni  0.99736196  0.24873443  0.16310889     1.25400
C613        C  0.53531356  0.29663255  0.11293887     0.89300
C614        C  0.53312553  0.19680663  0.21188707     0.89300
C615        C  0.53373046  0.18911866  0.11638627     0.89300
C616        C  0.53465998  0.30944528  0.20896590     0.89500
C617        C  0.53573877  0.37020790  0.02855184     0.88100
C618        C  0.57271933  0.39897002  0.03066617    -0.52200
C619        C  0.57283391  0.42902540  0.33972756     0.11000
C620        C  0.53495752  0.42579528  0.31445054     0.22000
C621        C  0.49826387  0.39827208  0.03080588    -0.52900
C622        C  0.49731328  0.42830361  0.33987425     0.11100
C623        C  0.53570322  0.35115933  0.99107481    -0.52400
C624        C  0.53529203  0.37986871  0.29926699     0.11700
H625        H  0.59653250  0.39519734  0.05029633     0.16200
H626        H  0.53462438  0.44909652  0.29399433     0.01900
H627        H  0.97472764  0.39405161  0.05051841     0.16500
H628        H  0.53593286  0.31783817  0.31818670     0.16300
C629        C  0.53489327  0.34291370  0.23584285    -0.11700
C630        C  0.53506509  0.36546134  0.26244498    -0.13200
C631        C  0.53588996  0.32053994  0.08230347    -0.11700
C632        C  0.53606649  0.34079808  0.05657609    -0.13200
C633        C  0.53260856  0.16664761  0.23839903    -0.11700
C634        C  0.53260409  0.14236947  0.26154223    -0.13200
C635        C  0.53337213  0.14040899  0.05849188    -0.11700
C636        C  0.53352592  0.15994037  0.08651342    -0.13200
C637        C  0.86955426  0.49288135  0.24635858    -0.11700
C638        C  0.89120098  0.49141244  0.27222583    -0.13200
C639        C  0.88783144  0.51178079  0.06907338    -0.11700
C640        C  0.86656385  0.51240057  0.09511822    -0.13200
C641        C  0.69864599  0.99508110  0.24594782    -0.11700
C642        C  0.67705750  0.99386855  0.27179488    -0.13200
C643        C  0.70265313  0.01472696  0.09471131    -0.11700
C644        C  0.68132166  0.01443941  0.06863668    -0.13200
C645        C  0.65628730  0.00845681  0.36984014     0.88100
C646        C  0.62685359  0.04413736  0.36336419    -0.52200
C647        C  0.60354588  0.03749121  0.66691483     0.11000
C648        C  0.61133845  0.49554934  0.64656782     0.22000
C649        C  0.62887392  0.47030018  0.37080191    -0.52900
C650        C  0.60461091  0.46294122  0.67469186     0.11100
C651        C  0.68152931  0.00218376  0.33600993    -0.52400
C652        C  0.65814181  0.99569629  0.63964030     0.11700
H653        H  0.62397239  0.07171736  0.38100160     0.16200
H654        H  0.59236230  0.49073182  0.62228493     0.01900
H655        H  0.62785906  0.45237495  0.39417852     0.16500
H656        H  0.71491690  0.00403486  0.66876358     0.16300
O657        O  0.82534809  0.47355098  0.46479844    -0.72800
O658        O  0.74197883  0.46512271  0.53543342    -0.72900
O659        O  0.74270352  0.47473012  0.46455158    -0.72900
O660        O  0.82549689  0.46399437  0.53568919    -0.73000
O661        O  0.82645705  0.03295327  0.54527283    -0.72900
O662        O  0.74359002  0.04372822  0.47407913    -0.72900
O663        O  0.74286630  0.03407848  0.54505341    -0.72900
O664        O  0.82632478  0.04255292  0.47429763    -0.72900
Ni665      Ni  0.78384660  0.46687720  0.49985399     1.25400
Ni666      Ni  0.78484295  0.04080610  0.51013915     1.25400
C667        C  0.83861643  0.00942535  0.45740241     0.89300
C668        C  0.72879210  0.99824289  0.55179718     0.89300
C669        C  0.73045489  0.01096458  0.45710303     0.89300
C670        C  0.83952973  0.99676466  0.55210136     0.89500
C671        C  0.91265309  0.50607818  0.37022528     0.88100
C672        C  0.94078321  0.46845711  0.37113312    -0.52200
C673        C  0.96488406  0.46155376  0.67493923     0.11000
C674        C  0.95725054  0.99399011  0.64681645     0.22000
C675        C  0.94134310  0.04230301  0.36362964    -0.52900
C676        C  0.96446137  0.03607965  0.66711841     0.11100
C677        C  0.88718497  0.49928675  0.33647581    -0.52400
C678        C  0.91038483  0.49322995  0.64003236     0.11700
H679        H  0.94237963  0.45058737  0.39452335     0.16200
H680        H  0.97606749  0.98953487  0.62247486     0.01900
H681        H  0.94388226  0.06995696  0.38123397     0.16500
H682        H  0.85376728  0.50060246  0.66932564     0.16300
C683        C  0.53297848  0.11684846  0.62580074     0.88100
C684        C  0.57073061  0.08844172  0.62814064    -0.52200
C685        C  0.57079588  0.06628130  0.32456742     0.11000
C686        C  0.53370169  0.07431501  0.34886097     0.22000
C687        C  0.99584972  0.08765607  0.62823818    -0.52900
C688        C  0.99654507  0.06550137  0.32466179     0.11100
C689        C  0.53287598  0.14375800  0.66053401    -0.52400
C690        C  0.53326093  0.12126194  0.35660737     0.11700
H691        H  0.59510280  0.08629725  0.60852662     0.16200
H692        H  0.53400755  0.05605005  0.37297500     0.01900
H693        H  0.97132854  0.08500324  0.60869893     0.16500
H694        H  0.53256814  0.17752180  0.32842038     0.16300
O695        O  0.56943243  0.28521788  0.45951919    -0.72800
O696        O  0.56773960  0.20943006  0.53384690    -0.72900
O697        O  0.56820754  0.20244944  0.46213493    -0.72900
O698        O  0.56888772  0.29381154  0.53140567    -0.73000
O699        O  0.00020131  0.29471512  0.53093043    -0.72900
O700        O  0.99945959  0.20338242  0.46167152    -0.72900
O701        O  0.99901811  0.21031405  0.53339586    -0.72900
O702        O  0.00067068  0.28614963  0.45904055    -0.72900
Ni703      Ni  0.57103625  0.24775276  0.49694605     1.25400
Ni704      Ni  0.99736198  0.24873447  0.49644231     1.25400
C705        C  0.53531356  0.29663249  0.44627225     0.89300
C706        C  0.53312554  0.19680662  0.54522051     0.89300
C707        C  0.53373047  0.18911871  0.44971969     0.89300
C708        C  0.53465997  0.30944544  0.54229931     0.89500
C709        C  0.53573877  0.37020797  0.36188516     0.88100
C710        C  0.57271937  0.39897008  0.36399949    -0.52200
C711        C  0.57283395  0.42902533  0.67306112     0.11000
C712        C  0.53495753  0.42579523  0.64778394     0.22000
C713        C  0.49826388  0.39827219  0.36413925    -0.52900
C714        C  0.49731327  0.42830358  0.67320766     0.11100
C715        C  0.53570314  0.35115934  0.32440809    -0.52400
C716        C  0.53529213  0.37986864  0.63260044     0.11700
H717        H  0.59653257  0.39519721  0.38362954     0.16200
H718        H  0.53462436  0.44909618  0.62732807     0.01900
H719        H  0.97472773  0.39405181  0.38385171     0.16500
H720        H  0.53593298  0.31783853  0.65152045     0.16300
C721        C  0.53489323  0.34291374  0.56917627    -0.11700
C722        C  0.53506509  0.36546126  0.59577842    -0.13200
C723        C  0.53588992  0.32053990  0.41563684    -0.11700
C724        C  0.53606642  0.34079804  0.38990943    -0.13200
C725        C  0.53260857  0.16664751  0.57173232    -0.11700
C726        C  0.53260401  0.14236944  0.59487552    -0.13200
C727        C  0.53337212  0.14040896  0.39182533    -0.11700
C728        C  0.53352589  0.15994046  0.41984680    -0.13200
C729        C  0.86955424  0.49288139  0.57969188    -0.11700
C730        C  0.89120094  0.49141248  0.60555912    -0.13200
C731        C  0.88783146  0.51178086  0.40240674    -0.11700
C732        C  0.86656384  0.51240054  0.42845155    -0.13200
C733        C  0.69864598  0.99508094  0.57928112    -0.11700
C734        C  0.67705750  0.99386856  0.60512818    -0.13200
C735        C  0.70265312  0.01472702  0.42804472    -0.11700
C736        C  0.68132168  0.01443928  0.40197012    -0.13200
C737        C  0.65628730  0.00845682  0.70317342     0.88100
C738        C  0.62685354  0.04413731  0.69669744    -0.52200
C739        C  0.60354589  0.03749109  0.00024789     0.11000
C740        C  0.61133847  0.49554927  0.97990115     0.22000
C741        C  0.62887407  0.47030017  0.70413515    -0.52900
C742        C  0.60461077  0.46294124  0.00802524     0.11100
C743        C  0.68152933  0.00218379  0.66934324    -0.52400
C744        C  0.65814176  0.99569621  0.97297350     0.11700
H745        H  0.62397228  0.07171732  0.71433477     0.16200
H746        H  0.59236218  0.49073167  0.95561815     0.01900
H747        H  0.62785914  0.45237556  0.72751150     0.16500
H748        H  0.71491684  0.00403436  0.00209670     0.16300
O749        O  0.82534811  0.47355098  0.79813179    -0.72800
O750        O  0.74197880  0.46512254  0.86876673    -0.72900
O751        O  0.74270351  0.47472998  0.79788490    -0.72900
O752        O  0.82549688  0.46399422  0.86902249    -0.73000
O753        O  0.82645709  0.03295325  0.87860613    -0.72900
O754        O  0.74358995  0.04372820  0.80741247    -0.72900
O755        O  0.74286631  0.03407855  0.87838677    -0.72900
O756        O  0.82632480  0.04255289  0.80763090    -0.72900
Ni757      Ni  0.78384658  0.46687710  0.83318732     1.25400
Ni758      Ni  0.78484294  0.04080610  0.84347246     1.25400
C759        C  0.83861642  0.00942533  0.79073570     0.89300
C760        C  0.72879209  0.99824296  0.88513050     0.89300
C761        C  0.73045483  0.01096457  0.79043637     0.89300
C762        C  0.83952973  0.99676463  0.88543465     0.89500
C763        C  0.91265310  0.50607792  0.70355850     0.88100
C764        C  0.94078317  0.46845691  0.70446643    -0.52200
C765        C  0.96488403  0.46155374  0.00827285     0.11000
C766        C  0.95725058  0.99399016  0.98014986     0.22000
C767        C  0.94134308  0.04230276  0.69696294    -0.52900
C768        C  0.96446136  0.03607984  0.00045180     0.11100
C769        C  0.88718494  0.49928668  0.66980908    -0.52400
C770        C  0.91038488  0.49322999  0.97336574     0.11700
H771        H  0.94237962  0.45058725  0.72785669     0.16200
H772        H  0.97606748  0.98953519  0.95580831     0.01900
H773        H  0.94388207  0.06995639  0.71456680     0.16500
H774        H  0.85376730  0.50060273  0.00265877     0.16300
C775        C  0.53297850  0.11684836  0.95913396     0.88100
C776        C  0.57073066  0.08844170  0.96147388    -0.52200
C777        C  0.57079586  0.06628127  0.65790082     0.11000
C778        C  0.53370159  0.07431490  0.68219423     0.22000
C779        C  0.99584970  0.08765603  0.96157140    -0.52900
C780        C  0.99654503  0.06550120  0.65799520     0.11100
C781        C  0.53287594  0.14375803  0.99386727    -0.52400
C782        C  0.53326088  0.12126178  0.68994066     0.11700
H783        H  0.59510287  0.08629724  0.94185990     0.16200
H784        H  0.53400739  0.05604971  0.70630872     0.01900
H785        H  0.97132834  0.08500351  0.94203229     0.16500
H786        H  0.53256815  0.17752168  0.66175361     0.16300
O787        O  0.56943241  0.28521784  0.79285258    -0.72800
O788        O  0.56773959  0.20942992  0.86718016    -0.72900
O789        O  0.56820756  0.20244933  0.79546814    -0.72900
O790        O  0.56888771  0.29381135  0.86473899    -0.73000
O791        O  0.00020118  0.29471506  0.86426372    -0.72900
O792        O  0.99945964  0.20338232  0.79500486    -0.72900
O793        O  0.99901809  0.21031395  0.86672924    -0.72900
O794        O  0.00067069  0.28614947  0.79237385    -0.72900
Ni795      Ni  0.57103623  0.24775265  0.83027934     1.25400
Ni796      Ni  0.99736197  0.24873439  0.82977565     1.25400
C797        C  0.53531356  0.29663239  0.77960559     0.89300
C798        C  0.53312554  0.19680652  0.87855387     0.89300
C799        C  0.53373048  0.18911860  0.78305298     0.89300
C800        C  0.53465998  0.30944527  0.87563266     0.89500
C801        C  0.53573882  0.37020804  0.69521868     0.88100
C802        C  0.57271940  0.39897009  0.69733297    -0.52200
C803        C  0.57283382  0.42902530  0.00639422     0.11000
C804        C  0.53495744  0.42579517  0.98111715     0.22000
C805        C  0.49826382  0.39827227  0.69747266    -0.52900
C806        C  0.49731320  0.42830350  0.00654092     0.11100
C807        C  0.53570329  0.35115931  0.65774157    -0.52400
C808        C  0.53529208  0.37986858  0.96593368     0.11700
H809        H  0.59653305  0.39519741  0.71696372     0.16200
H810        H  0.53462428  0.44909633  0.96066093     0.01900
H811        H  0.97472746  0.39405180  0.71718503     0.16500
H812        H  0.53593294  0.31783752  0.98485340     0.16300
C813        C  0.53489324  0.34291380  0.90250955    -0.11700
C814        C  0.53506509  0.36546136  0.92911171    -0.13200
C815        C  0.53588992  0.32054003  0.74897032    -0.11700
C816        C  0.53606644  0.34079805  0.72324282    -0.13200
C817        C  0.53260853  0.16664753  0.90506569    -0.11700
C818        C  0.53260398  0.14236950  0.92820891    -0.13200
C819        C  0.53337215  0.14040907  0.72515854    -0.11700
C820        C  0.53352593  0.15994040  0.75318008    -0.13200
C821        C  0.86955427  0.49288127  0.91302516    -0.11700
C822        C  0.89120100  0.49141255  0.93889243    -0.13200
C823        C  0.88783158  0.51178075  0.73574006    -0.11700
C824        C  0.86656389  0.51240062  0.76178485    -0.13200
C825        C  0.69864601  0.99508103  0.91261444    -0.11700
C826        C  0.67705749  0.99386845  0.93846146    -0.13200
C827        C  0.70265307  0.01472714  0.76137799    -0.11700
C828        C  0.68132159  0.01443928  0.73530342    -0.13200
C829        C  0.65628737  0.50845673  0.03650665     0.88100
C830        C  0.62685358  0.54413734  0.03003075    -0.52200
C831        C  0.60354585  0.53749128  0.33358157     0.11000
C832        C  0.61133838  0.99554928  0.31323455     0.22000
C833        C  0.62887399  0.97030011  0.03746850    -0.52900
C834        C  0.60461085  0.96294113  0.34135858     0.11100
C835        C  0.68152932  0.50218369  0.00267644    -0.52400
C836        C  0.65814187  0.49569633  0.30630697     0.11700
H837        H  0.62397291  0.57171690  0.04766740     0.16200
H838        H  0.59236216  0.99073182  0.28895171     0.01900
H839        H  0.62785897  0.95237565  0.06084487     0.16500
H840        H  0.71491714  0.50403485  0.33543023     0.16300
O841        O  0.82534804  0.97355098  0.13146522    -0.72800
O842        O  0.74197874  0.96512259  0.20210007    -0.72900
O843        O  0.74270357  0.97472999  0.13121827    -0.72900
O844        O  0.82549678  0.96399423  0.20235596    -0.73000
O845        O  0.82645695  0.53295329  0.21193958    -0.72900
O846        O  0.74359003  0.54372820  0.14074590    -0.72900
O847        O  0.74286618  0.53407857  0.21172009    -0.72900
O848        O  0.82632472  0.54255289  0.14096431    -0.72900
Ni849      Ni  0.78384655  0.96687712  0.16652072     1.25400
Ni850      Ni  0.78484290  0.54080613  0.17680587     1.25400
C851        C  0.83861640  0.50942537  0.12406906     0.89300
C852        C  0.72879202  0.49824296  0.21846386     0.89300
C853        C  0.73045489  0.51096454  0.12376978     0.89300
C854        C  0.83952961  0.49676467  0.21876808     0.89500
C855        C  0.91265321  0.00607787  0.03689189     0.88100
C856        C  0.94078320  0.96845694  0.03779989    -0.52200
C857        C  0.96488416  0.96155398  0.34160590     0.11000
C858        C  0.95725046  0.49399024  0.31348319     0.22000
C859        C  0.94134312  0.54230285  0.03029635    -0.52900
C860        C  0.96446121  0.53607999  0.33378530     0.11100
C861        C  0.88718506  0.99928658  0.00314237    -0.52400
C862        C  0.91038502  0.99322996  0.30669904     0.11700
H863        H  0.94237988  0.95058691  0.06119084     0.16200
H864        H  0.97606699  0.48953526  0.28914193     0.01900
H865        H  0.94388223  0.56995688  0.04790061     0.16500
H866        H  0.85376777  0.00060242  0.33599239     0.16300
C867        C  0.53297847  0.61684842  0.29246744     0.88100
C868        C  0.57073062  0.58844179  0.29480731    -0.52200
C869        C  0.57079579  0.56628130  0.99123416     0.11000
C870        C  0.53370158  0.57431498  0.01552762     0.22000
C871        C  0.99584975  0.58765604  0.29490481    -0.52900
C872        C  0.99654496  0.56550128  0.99132840     0.11100
C873        C  0.53287588  0.64375800  0.32720072    -0.52400
C874        C  0.53326087  0.62126194  0.02327401     0.11700
H875        H  0.59510212  0.58629737  0.27519359     0.16200
H876        H  0.53400716  0.55604995  0.03964161     0.01900
H877        H  0.97132832  0.58500345  0.27536562     0.16500
H878        H  0.53256864  0.67752185  0.99508705     0.16300
O879        O  0.56943231  0.78521773  0.12618576    -0.72800
O880        O  0.56773948  0.70942992  0.20051345    -0.72900
O881        O  0.56820752  0.70244932  0.12880152    -0.72900
O882        O  0.56888766  0.79381137  0.19807220    -0.73000
O883        O  0.00020123  0.79471495  0.19759696    -0.72900
O884        O  0.99945975  0.70338226  0.12833807    -0.72900
O885        O  0.99901806  0.71031392  0.20006240    -0.72900
O886        O  0.00067063  0.78614949  0.12570710    -0.72900
Ni887      Ni  0.57103614  0.74775266  0.16361264     1.25400
Ni888      Ni  0.99736195  0.74873435  0.16310888     1.25400
C889        C  0.53531347  0.79663246  0.11293889     0.89300
C890        C  0.53312543  0.69680658  0.21188715     0.89300
C891        C  0.53373051  0.68911856  0.11638624     0.89300
C892        C  0.53465991  0.80944529  0.20896585     0.89500
C893        C  0.53573882  0.87020797  0.02855197     0.88100
C894        C  0.57271947  0.89897003  0.03066629    -0.52200
C895        C  0.57283383  0.92902526  0.33972755     0.11000
C896        C  0.53495743  0.92579513  0.31445052     0.22000
C897        C  0.49826383  0.89827218  0.03080592    -0.52900
C898        C  0.49731324  0.92830362  0.33987423     0.11100
C899        C  0.53570329  0.85115929  0.99107490    -0.52400
C900        C  0.53529204  0.87986849  0.29926697     0.11700
H901        H  0.59653265  0.89519736  0.05029642     0.16200
H902        H  0.53462442  0.94909634  0.29399420     0.01900
H903        H  0.97472842  0.89405194  0.05051805     0.16500
H904        H  0.53593279  0.81783712  0.31818650     0.16300
C905        C  0.53489306  0.84291364  0.23584281    -0.11700
C906        C  0.53506511  0.86546125  0.26244494    -0.13200
C907        C  0.53588990  0.82053995  0.08230359    -0.11700
C908        C  0.53606637  0.84079799  0.05657614    -0.13200
C909        C  0.53260845  0.66664759  0.23839907    -0.11700
C910        C  0.53260399  0.64236948  0.26154225    -0.13200
C911        C  0.53337215  0.64040896  0.05849190    -0.11700
C912        C  0.53352584  0.65994039  0.08651336    -0.13200
C913        C  0.86955421  0.99288121  0.24635861    -0.11700
C914        C  0.89120108  0.99141251  0.27222579    -0.13200
C915        C  0.88783162  0.01178072  0.06907338    -0.11700
C916        C  0.86656391  0.01240059  0.09511818    -0.13200
C917        C  0.69864603  0.49508098  0.24594784    -0.11700
C918        C  0.67705742  0.49386849  0.27179481    -0.13200
C919        C  0.70265309  0.51472703  0.09471138    -0.11700
C920        C  0.68132172  0.51443925  0.06863671    -0.13200
C921        C  0.65628732  0.50845680  0.36984012     0.88100
C922        C  0.62685357  0.54413737  0.36336415    -0.52200
C923        C  0.60354583  0.53749126  0.66691479     0.11000
C924        C  0.61133840  0.99554921  0.64656786     0.22000
C925        C  0.62887390  0.97030018  0.37080189    -0.52900
C926        C  0.60461089  0.96294119  0.67469196     0.11100
C927        C  0.68152929  0.50218383  0.33600990    -0.52400
C928        C  0.65814188  0.49569634  0.63964023     0.11700
H929        H  0.62397269  0.57171740  0.38100135     0.16200
H930        H  0.59236216  0.99073145  0.62228496     0.01900
H931        H  0.62785908  0.95237500  0.39417858     0.16500
H932        H  0.71491719  0.50403496  0.66876349     0.16300
O933        O  0.82534805  0.97355086  0.46479848    -0.72800
O934        O  0.74197877  0.96512260  0.53543335    -0.72900
O935        O  0.74270352  0.97473008  0.46455157    -0.72900
O936        O  0.82549685  0.96399422  0.53568928    -0.73000
O937        O  0.82645699  0.53295342  0.54527288    -0.72900
O938        O  0.74358992  0.54372828  0.47407917    -0.72900
O939        O  0.74286623  0.53407863  0.54505343    -0.72900
O940        O  0.82632469  0.54255295  0.47429760    -0.72900
Ni941      Ni  0.78384657  0.96687711  0.49985402     1.25400
Ni942      Ni  0.78484288  0.54080618  0.51013916     1.25400
C943        C  0.83861638  0.50942542  0.45740237     0.89300
C944        C  0.72879203  0.49824303  0.55179716     0.89300
C945        C  0.73045488  0.51096463  0.45710305     0.89300
C946        C  0.83952965  0.49676481  0.55210138     0.89500
C947        C  0.91265322  0.00607806  0.37022520     0.88100
C948        C  0.94078324  0.96845706  0.37113312    -0.52200
C949        C  0.96488411  0.96155382  0.67493934     0.11000
C950        C  0.95725046  0.49399014  0.64681644     0.22000
C951        C  0.94134303  0.54230302  0.36362975    -0.52900
C952        C  0.96446125  0.53607982  0.66711846     0.11100
C953        C  0.88718505  0.99928672  0.33647580    -0.52400
C954        C  0.91038502  0.99322997  0.64003232     0.11700
H955        H  0.94237976  0.95058745  0.39452328     0.16200
H956        H  0.97606702  0.48953509  0.62247515     0.01900
H957        H  0.94388215  0.56995777  0.38123435     0.16500
H958        H  0.85376782  0.00060257  0.66932569     0.16300
C959        C  0.53297848  0.61684858  0.62580089     0.88100
C960        C  0.57073055  0.58844186  0.62814073    -0.52200
C961        C  0.57079578  0.56628128  0.32456754     0.11000
C962        C  0.53370156  0.57431479  0.34886102     0.22000
C963        C  0.99584983  0.58765609  0.62823825    -0.52900
C964        C  0.99654502  0.56550125  0.32466185     0.11100
C965        C  0.53287588  0.64375818  0.66053404    -0.52400
C966        C  0.53326087  0.62126162  0.35660741     0.11700
H967        H  0.59510199  0.58629759  0.60852701     0.16200
H968        H  0.53400713  0.55604980  0.37297495     0.01900
H969        H  0.97132848  0.58500366  0.60869906     0.16500
H970        H  0.53256863  0.67752051  0.32842025     0.16300
O971        O  0.56943230  0.78521776  0.45951918    -0.72800
O972        O  0.56773947  0.70942997  0.53384685    -0.72900
O973        O  0.56820753  0.70244933  0.46213487    -0.72900
O974        O  0.56888767  0.79381134  0.53140565    -0.73000
O975        O  0.00020125  0.79471499  0.53093036    -0.72900
O976        O  0.99945970  0.70338232  0.46167157    -0.72900
O977        O  0.99901805  0.71031397  0.53339595    -0.72900
O978        O  0.00067064  0.78614943  0.45904048    -0.72900
Ni979      Ni  0.57103613  0.74775266  0.49694600     1.25400
Ni980      Ni  0.99736196  0.74873436  0.49644233     1.25400
C981        C  0.53531347  0.79663248  0.44627229     0.89300
C982        C  0.53312543  0.69680647  0.54522049     0.89300
C983        C  0.53373052  0.68911853  0.44971971     0.89300
C984        C  0.53465992  0.80944532  0.54229929     0.89500
C985        C  0.53573875  0.87020781  0.36188511     0.88100
C986        C  0.57271937  0.89896996  0.36399946    -0.52200
C987        C  0.57283397  0.92902523  0.67306108     0.11000
C988        C  0.53495745  0.92579508  0.64778397     0.22000
C989        C  0.49826378  0.89827217  0.36413922    -0.52900
C990        C  0.49731318  0.92830350  0.67320781     0.11100
C991        C  0.53570320  0.85115925  0.32440807    -0.52400
C992        C  0.53529205  0.87986861  0.63260049     0.11700
H993        H  0.59653264  0.89519723  0.38362957     0.16200
H994        H  0.53462442  0.94909592  0.62732808     0.01900
H995        H  0.97472860  0.89405199  0.38385135     0.16500
H996        H  0.53593279  0.81783852  0.65152050     0.16300
C997        C  0.53489307  0.84291376  0.56917628    -0.11700
C998        C  0.53506511  0.86546129  0.59577846    -0.13200
C999        C  0.53588991  0.82053990  0.41563687    -0.11700
C1000       C  0.53606638  0.84079796  0.38990941    -0.13200
C1001       C  0.53260841  0.66664752  0.57173240    -0.11700
C1002       C  0.53260397  0.64236939  0.59487556    -0.13200
C1003       C  0.53337217  0.64040894  0.39182531    -0.11700
C1004       C  0.53352587  0.65994043  0.41984678    -0.13200
C1005       C  0.86955422  0.99288127  0.57969193    -0.11700
C1006       C  0.89120106  0.99141249  0.60555910    -0.13200
C1007       C  0.88783166  0.01178080  0.40240674    -0.11700
C1008       C  0.86656389  0.01240058  0.42845150    -0.13200
C1009       C  0.69864603  0.49508105  0.57928112    -0.11700
C1010       C  0.67705743  0.49386856  0.60512809    -0.13200
C1011       C  0.70265307  0.51472716  0.42804478    -0.11700
C1012       C  0.68132172  0.51443930  0.40197012    -0.13200
C1013       C  0.65628739  0.50845680  0.70317329     0.88100
C1014       C  0.62685358  0.54413739  0.69669742    -0.52200
C1015       C  0.60354590  0.53749120  0.00024805     0.11000
C1016       C  0.61133834  0.99554912  0.97990108     0.22000
C1017       C  0.62887401  0.97030024  0.70413525    -0.52900
C1018       C  0.60461085  0.96294110  0.00802514     0.11100
C1019       C  0.68152934  0.50218385  0.66934315    -0.52400
C1020       C  0.65814184  0.49569635  0.97297352     0.11700
H1021       H  0.62397264  0.57171660  0.71433438     0.16200
H1022       H  0.59236200  0.99073126  0.95561812     0.01900
H1023       H  0.62785912  0.95237521  0.72751201     0.16500
H1024       H  0.71491713  0.50403480  0.00209666     0.16300
O1025       O  0.82534803  0.97355093  0.79813185    -0.72800
O1026       O  0.74197878  0.96512267  0.86876665    -0.72900
O1027       O  0.74270355  0.97473008  0.79788488    -0.72900
O1028       O  0.82549683  0.96399420  0.86902255    -0.73000
O1029       O  0.82645701  0.53295329  0.87860613    -0.72900
O1030       O  0.74358994  0.54372816  0.80741246    -0.72900
O1031       O  0.74286623  0.53407847  0.87838670    -0.72900
O1032       O  0.82632469  0.54255296  0.80763092    -0.72900
Ni1033     Ni  0.78384658  0.96687714  0.83318733     1.25400
Ni1034     Ni  0.78484289  0.54080608  0.84347245     1.25400
C1035       C  0.83861641  0.50942544  0.79073571     0.89300
C1036       C  0.72879203  0.49824286  0.88513047     0.89300
C1037       C  0.73045483  0.51096448  0.79043639     0.89300
C1038       C  0.83952965  0.49676466  0.88543467     0.89500
C1039       C  0.91265320  0.00607785  0.70355856     0.88100
C1040       C  0.94078322  0.96845701  0.70446653    -0.52200
C1041       C  0.96488411  0.96155376  0.00827274     0.11000
C1042       C  0.95725043  0.49399014  0.98014990     0.22000
C1043       C  0.94134306  0.54230293  0.69696299    -0.52900
C1044       C  0.96446128  0.53607983  0.00045184     0.11100
C1045       C  0.88718504  0.99928653  0.66980912    -0.52400
C1046       C  0.91038506  0.99322990  0.97336565     0.11700
H1047       H  0.94237967  0.95058687  0.72785708     0.16200
H1048       H  0.97606699  0.48953492  0.95580855     0.01900
H1049       H  0.94388215  0.56995654  0.71456683     0.16500
H1050       H  0.85376781  0.00060236  0.00265883     0.16300
C1051       C  0.53297846  0.61684864  0.95913421     0.88100
C1052       C  0.57073059  0.58844189  0.96147400    -0.52200
C1053       C  0.57079574  0.56628129  0.65790094     0.11000
C1054       C  0.53370156  0.57431485  0.68219433     0.22000
C1055       C  0.99584966  0.58765607  0.96157146    -0.52900
C1056       C  0.99654506  0.56550122  0.65799527     0.11100
C1057       C  0.53287588  0.64375823  0.99386742    -0.52400
C1058       C  0.53326087  0.62126182  0.68994070     0.11700
H1059       H  0.59510205  0.58629775  0.94186032     0.16200
H1060       H  0.53400714  0.55604963  0.70630869     0.01900
H1061       H  0.97132759  0.58500371  0.94203204     0.16500
H1062       H  0.53256863  0.67752172  0.66175365     0.16300
O1063       O  0.56943232  0.78521789  0.79285253    -0.72800
O1064       O  0.56773950  0.70942994  0.86718015    -0.72900
O1065       O  0.56820754  0.70244938  0.79546825    -0.72900
O1066       O  0.56888768  0.79381140  0.86473897    -0.73000
O1067       O  0.00020127  0.79471493  0.86426367    -0.72900
O1068       O  0.99945969  0.70338244  0.79500490    -0.72900
O1069       O  0.99901806  0.71031401  0.86672914    -0.72900
O1070       O  0.00067066  0.78614955  0.79237390    -0.72900
Ni1071     Ni  0.57103614  0.74775269  0.83027935     1.25400
Ni1072     Ni  0.99736196  0.74873439  0.82977563     1.25400
C1073       C  0.53531348  0.79663244  0.77960557     0.89300
C1074       C  0.53312543  0.69680658  0.87855381     0.89300
C1075       C  0.53373052  0.68911872  0.78305299     0.89300
C1076       C  0.53465992  0.80944517  0.87563275     0.89500
C1077       C  0.53573880  0.87020808  0.69521879     0.88100
C1078       C  0.57271949  0.89897007  0.69733295    -0.52200
C1079       C  0.57283384  0.92902530  0.00639436     0.11000
C1080       C  0.53495751  0.92579516  0.98111716     0.22000
C1081       C  0.49826378  0.89827215  0.69747272    -0.52900
C1082       C  0.49731333  0.92830357  0.00654096     0.11100
C1083       C  0.53570320  0.85115942  0.65774166    -0.52400
C1084       C  0.53529201  0.87986859  0.96593377     0.11700
H1085       H  0.59653318  0.89519752  0.71696374     0.16200
H1086       H  0.53462459  0.94909580  0.96066108     0.01900
H1087       H  0.97472800  0.89405186  0.71718551     0.16500
H1088       H  0.53593272  0.81783832  0.98485360     0.16300
C1089       C  0.53489312  0.84291378  0.90250956    -0.11700
C1090       C  0.53506522  0.86546132  0.92911175    -0.13200
C1091       C  0.53588995  0.82054000  0.74897027    -0.11700
C1092       C  0.53606641  0.84079799  0.72324279    -0.13200
C1093       C  0.53260846  0.66664753  0.90506564    -0.11700
C1094       C  0.53260399  0.64236952  0.92820891    -0.13200
C1095       C  0.53337218  0.64040900  0.72515864    -0.11700
C1096       C  0.53352588  0.65994045  0.75318015    -0.13200
C1097       C  0.86955423  0.99288127  0.91302522    -0.11700
C1098       C  0.89120109  0.99141239  0.93889239    -0.13200
C1099       C  0.88783173  0.01178083  0.73574012    -0.11700
C1100       C  0.86656388  0.01240046  0.76178479    -0.13200
C1101       C  0.69864602  0.49508093  0.91261443    -0.11700
C1102       C  0.67705740  0.49386854  0.93846140    -0.13200
C1103       C  0.70265304  0.51472701  0.76137805    -0.11700
C1104       C  0.68132165  0.51443932  0.73530341    -0.13200
loop_ 
_geom_bond_atom_site_label_1 
_geom_bond_atom_site_label_2 
_geom_bond_distance 
_geom_bond_site_symmetry_2 
_ccdc_geom_bond_type 
C1            C2   1.526       .  S
C1            C7   1.526       .  S
C1          C281   1.521   1_545  S
C1           C92   1.466       .  S
C2            H9   1.087       .  S
C2          C187   1.364       .  D
C3          C280   1.541   1_545  S
C3           C94   1.364       .  D
C3          C133   1.464       .  S
C4            C6   1.551       .  S
C4          C279   1.541       .  S
C4          C284   1.544       .  S
C4           H10   1.109       .  S
C5          C277   1.521       .  S
C5           H11   1.083       .  S
C5          C190   1.374       .  D
C6           C97   1.374       .  D
C6           C67   1.503       .  S
C7          H196   1.087       .  S
C7          C192   1.362   1_544  D
C8          C280   1.544       .  S
C8           C99   1.362   1_565  D
C8           C90   1.443       .  S
H12          C99   1.087       .  S
O13         Ni21   1.914       .  S
O13         C299   1.279       .  A
O14         Ni21   1.919       .  S
O14         C300   1.279       .  A
O15         Ni21   1.915       .  S
O15         C301   1.280       .  A
O16         Ni21   1.920       .  S
O16         C302   1.280       .  A
O17         Ni22   1.921       .  S
O17          C26   1.281   1_545  A
O18         Ni22   1.917       .  S
O18          C25   1.279       .  A
O19         Ni22   1.921       .  S
O19          C24   1.281   1_545  A
O20         Ni22   1.917       .  S
O20          C23   1.279       .  A
Ni21       Ni298   2.394       .  S
Ni22       Ni297   2.394   1_545  S
C23         O289   1.279   1_545  A
C23         C364   1.432       .  S
C24         O290   1.279       .  A
C24          C89   1.438       .  S
C25         O291   1.280   1_545  A
C25          C91   1.432       .  S
C26         O292   1.280       .  A
C26         C361   1.438       .  S
C27          C28   1.521       .  S
C27          C33   1.526       .  S
C27         C307   1.525       .  S
C27          C87   1.465       .  S
C28          H35   1.083       .  S
C28         C213   1.374       .  D
C29         C306   1.551       .  S
C29         C120   1.374       .  D
C29         C622   1.502       .  S
C30          C32   1.540   1_565  S
C30         C305   1.551       .  S
C30         C310   1.544       .  S
C30          H36   1.109       .  S
C31         C303   1.525       .  S
C31          H37   1.087       .  S
C31         C216   1.363       .  D
C32         C123   1.363       .  D
C32         C136   1.464       .  S
C33         H222   1.087       .  S
C33         C218   1.362   1_554  D
C34         C306   1.544       .  S
C34         C125   1.362       .  D
C34          C86   1.443       .  S
H38         C125   1.087       .  S
C39          C40   1.536       .  S
C39          C45   1.535       .  S
C39         C595   1.536   1_455  S
C39          C82   1.466       .  S
C40          H47   1.086       .  S
C40         C133   1.366       .  D
C41          C42   1.531   1_556  S
C41         C224   1.366       .  D
C41         C187   1.464   1_556  S
C42          C46   1.526       .  S
C42         C596   1.531   1_454  S
C42          H48   1.112       .  S
C43         C591   1.536       .  S
C43          H49   1.086       .  S
C43         C136   1.365       .  D
C44         C594   1.531   1_556  S
C44         C227   1.365       .  D
C44         C216   1.464   1_556  S
C45         H142   1.087       .  S
C45         C138   1.360       .  D
C46         C229   1.360   1_554  D
C46          C83   1.438       .  S
H50         C229   1.087       .  S
O51         Ni59   1.911       .  S
O51          C61   1.278       .  A
O52         Ni59   1.916       .  S
O52          C62   1.279       .  A
O53         Ni59   1.915       .  S
O53          C63   1.279       .  A
O54         Ni59   1.924       .  S
O54          C64   1.281       .  A
O55         Ni60   1.923       .  S
O55         C616   1.281       .  A
O56         Ni60   1.915       .  S
O56         C615   1.279       .  A
O57         Ni60   1.918       .  S
O57         C614   1.280       .  A
O58         Ni60   1.911       .  S
O58         C613   1.279       .  A
Ni59       Ni612   2.395   1_455  S
Ni60       Ni611   2.395       .  S
C61         O610   1.279       .  A
C61          C79   1.426       .  S
C62         O609   1.280   1_455  A
C62          C81   1.434       .  S
C63         O608   1.279   1_455  A
C63          C84   1.431       .  S
C64         O607   1.281       .  A
C64          C77   1.442       .  S
C65          C66   1.517       .  S
C65          C71   1.515   1_554  S
C65          C69   1.517   1_455  S
C65          C80   1.460       .  S
C66          H73   1.083       .  S
C66         C251   1.370       .  D
C67          C68   1.557       .  S
C67         C158   1.370       .  D
C68          C72   1.559       .  S
C68          C70   1.557   1_455  S
C68          H74   1.107       .  S
C69         H627   1.083       .  S
C69         C254   1.370       .  D
C70         C161   1.370       .  D
C70         C581   1.502       .  S
C71         H260   1.087       .  S
C71         C256   1.362       .  D
C72         C163   1.362       .  D
C72          C78   1.445       .  S
H75         C621   1.083       .  S
H76         C163   1.087       .  S
C77          C78   1.209       .  T
C79          C80   1.201       .  T
C81          C82   1.205       .  T
C83          C84   1.204       .  T
C85         C302   1.438       .  S
C85          C86   1.207       .  T
C87          C88   1.204       .  T
C88         C299   1.432       .  S
C89          C90   1.207       .  T
C91          C92   1.204       .  T
C93          C94   1.526       .  S
C93          C99   1.526       .  S
C93         C373   1.521   1_545  S
C93         C184   1.466       .  S
C94         H101   1.087       .  S
C95         C372   1.541   1_545  S
C95         C186   1.364       .  D
C95         C225   1.464       .  S
C96         C371   1.541       .  S
C96         C376   1.544       .  S
C96          C98   1.551       .  S
C96         H102   1.109       .  S
C97         C369   1.521       .  S
C97         H103   1.083       .  S
C98         C189   1.374       .  D
C98         C159   1.503       .  S
C100        C372   1.544       .  S
C100        C191   1.362   1_565  D
C100        C182   1.443       .  S
H104        C191   1.087       .  S
O105       Ni113   1.914       .  S
O105        C391   1.279       .  A
O106       Ni113   1.919       .  S
O106        C392   1.279       .  A
O107       Ni113   1.915       .  S
O107        C393   1.280       .  A
O108       Ni113   1.920       .  S
O108        C394   1.280       .  A
O109       Ni114   1.921       .  S
O109        C118   1.281   1_545  A
O110       Ni114   1.917       .  S
O110        C117   1.279       .  A
O111       Ni114   1.921       .  S
O111        C116   1.281   1_545  A
O112       Ni114   1.917       .  S
O112        C115   1.279       .  A
Ni113      Ni390   2.394       .  S
Ni114      Ni389   2.394   1_545  S
C115        O381   1.279   1_545  A
C115        C456   1.432       .  S
C116        O382   1.279       .  A
C116        C181   1.438       .  S
C117        O383   1.280   1_545  A
C117        C183   1.432       .  S
C118        O384   1.280       .  A
C118        C453   1.438       .  S
C119        C120   1.521       .  S
C119        C125   1.526       .  S
C119        C399   1.525       .  S
C119        C179   1.465       .  S
C120        H127   1.083       .  S
C121        C398   1.551       .  S
C121        C212   1.374       .  D
C121        C714   1.502       .  S
C122        C397   1.551       .  S
C122        C402   1.544       .  S
C122        C124   1.540   1_565  S
C122        H128   1.109       .  S
C123        C395   1.525       .  S
C123        H129   1.087       .  S
C124        C215   1.363       .  D
C124        C228   1.464       .  S
C126        C398   1.544       .  S
C126        C217   1.362       .  D
C126        C178   1.443       .  S
H130        C217   1.087       .  S
C131        C132   1.536       .  S
C131        C137   1.535       .  S
C131        C687   1.536   1_455  S
C131        C174   1.466       .  S
C132        H139   1.086       .  S
C132        C225   1.366       .  D
C133        C134   1.531       .  S
C134        C138   1.526       .  S
C134        C688   1.531   1_455  S
C134        H140   1.112       .  S
C135        C683   1.536       .  S
C135        H141   1.086       .  S
C135        C228   1.365       .  D
C136        C686   1.531       .  S
C137        H234   1.087       .  S
C137        C230   1.360       .  D
C138        C175   1.438       .  S
O143       Ni151   1.911       .  S
O143        C153   1.278       .  A
O144       Ni151   1.916       .  S
O144        C154   1.279       .  A
O145       Ni151   1.915       .  S
O145        C155   1.279       .  A
O146       Ni151   1.924       .  S
O146        C156   1.281       .  A
O147       Ni152   1.923       .  S
O147        C708   1.281       .  A
O148       Ni152   1.915       .  S
O148        C707   1.279       .  A
O149       Ni152   1.918       .  S
O149        C706   1.280       .  A
O150       Ni152   1.911       .  S
O150        C705   1.279       .  A
Ni151      Ni704   2.395   1_455  S
Ni152      Ni703   2.395       .  S
C153        O702   1.279       .  A
C153        C171   1.426       .  S
C154        O701   1.280   1_455  A
C154        C173   1.434       .  S
C155        O700   1.279   1_455  A
C155        C176   1.431       .  S
C156        O699   1.281       .  A
C156        C169   1.442       .  S
C157        C158   1.517       .  S
C157        C163   1.515       .  S
C157        C161   1.517   1_455  S
C157        C172   1.460       .  S
C158        H165   1.083       .  S
C159        C160   1.557       .  S
C159        C250   1.370       .  D
C160        C164   1.559       .  S
C160        C162   1.557   1_455  S
C160        H166   1.107       .  S
C161        H719   1.083       .  S
C162        C253   1.370       .  D
C162        C673   1.502       .  S
C164        C255   1.362       .  D
C164        C170   1.445       .  S
H167        C713   1.083       .  S
H168        C255   1.087       .  S
C169        C170   1.209       .  T
C171        C172   1.201       .  T
C173        C174   1.205       .  T
C175        C176   1.204       .  T
C177        C394   1.438       .  S
C177        C178   1.207       .  T
C179        C180   1.204       .  T
C180        C391   1.432       .  S
C181        C182   1.207       .  T
C183        C184   1.204       .  T
C185        C186   1.526       .  S
C185        C191   1.526       .  S
C185        C465   1.521   1_545  S
C185        C276   1.466       .  S
C186        H193   1.087       .  S
C187        C464   1.541   1_544  S
C188        C463   1.541   1_556  S
C188        C468   1.544       .  S
C188        C190   1.551   1_556  S
C188        H194   1.109       .  S
C189        C461   1.521       .  S
C189        H195   1.083       .  S
C190        C251   1.503       .  S
C192        C464   1.544       .  S
C192        C274   1.443       .  S
O197       Ni205   1.914       .  S
O197        C483   1.279       .  A
O198       Ni205   1.919       .  S
O198        C484   1.279       .  A
O199       Ni205   1.915       .  S
O199        C485   1.280       .  A
O200       Ni205   1.920       .  S
O200        C486   1.280       .  A
O201       Ni206   1.921       .  S
O201        C210   1.281   1_545  A
O202       Ni206   1.917       .  S
O202        C209   1.279       .  A
O203       Ni206   1.921       .  S
O203        C208   1.281   1_545  A
O204       Ni206   1.917       .  S
O204        C207   1.279       .  A
Ni205      Ni482   2.394       .  S
Ni206      Ni481   2.394   1_545  S
C207        O473   1.279   1_545  A
C207        C548   1.432       .  S
C208        O474   1.279       .  A
C208        C273   1.438       .  S
C209        O475   1.280   1_545  A
C209        C275   1.432       .  S
C210        O476   1.280       .  A
C210        C545   1.438       .  S
C211        C212   1.521       .  S
C211        C217   1.526       .  S
C211        C491   1.525       .  S
C211        C271   1.465       .  S
C212        H219   1.083       .  S
C213        C490   1.551   1_554  S
C213        C806   1.502       .  S
C214        C489   1.551   1_556  S
C214        C494   1.544       .  S
C214        C216   1.540   1_566  S
C214        H220   1.109       .  S
C215        C487   1.525       .  S
C215        H221   1.087       .  S
C218        C490   1.544       .  S
C218        C270   1.443       .  S
C223        C224   1.536       .  S
C223        C229   1.535       .  S
C223        C779   1.536   1_455  S
C223        C266   1.466       .  S
C224        H231   1.086       .  S
C225        C226   1.531       .  S
C226        C230   1.526       .  S
C226        C780   1.531   1_455  S
C226        H232   1.112       .  S
C227        C775   1.536       .  S
C227        H233   1.086       .  S
C228        C778   1.531       .  S
C230        C267   1.438       .  S
O235       Ni243   1.911       .  S
O235        C245   1.278       .  A
O236       Ni243   1.916       .  S
O236        C246   1.279       .  A
O237       Ni243   1.915       .  S
O237        C247   1.279       .  A
O238       Ni243   1.924       .  S
O238        C248   1.281       .  A
O239       Ni244   1.923       .  S
O239        C800   1.281       .  A
O240       Ni244   1.915       .  S
O240        C799   1.279       .  A
O241       Ni244   1.918       .  S
O241        C798   1.280       .  A
O242       Ni244   1.911       .  S
O242        C797   1.279       .  A
Ni243      Ni796   2.395   1_455  S
Ni244      Ni795   2.395       .  S
C245        O794   1.279       .  A
C245        C263   1.426       .  S
C246        O793   1.280   1_455  A
C246        C265   1.434       .  S
C247        O792   1.279   1_455  A
C247        C268   1.431       .  S
C248        O791   1.281       .  A
C248        C261   1.442       .  S
C249        C250   1.517       .  S
C249        C255   1.515       .  S
C249        C253   1.517   1_455  S
C249        C264   1.460       .  S
C250        H257   1.083       .  S
C251        C252   1.557   1_554  S
C252        C256   1.559       .  S
C252        C254   1.557   1_456  S
C252        H258   1.107       .  S
C253        H811   1.083       .  S
C254        C765   1.502       .  S
C256        C262   1.445       .  S
H259        C805   1.083       .  S
C261        C262   1.209       .  T
C263        C264   1.201       .  T
C265        C266   1.205       .  T
C267        C268   1.204       .  T
C269        C486   1.438       .  S
C269        C270   1.207       .  T
C271        C272   1.204       .  T
C272        C483   1.432       .  S
C273        C274   1.207       .  T
C275        C276   1.204       .  T
C277        C278   1.526       .  S
C277        C283   1.526       .  S
C277        C368   1.466       .  S
C278        H285   1.087       .  S
C278        C463   1.364       .  D
C279        C370   1.364       .  D
C279        C409   1.464       .  S
C280        C282   1.551       .  S
C280        H286   1.109       .  S
C281        H287   1.083       .  S
C281        C466   1.374       .  D
C282        C373   1.374       .  D
C282        C343   1.503       .  S
C283        H472   1.087       .  S
C283        C468   1.362   1_554  D
C284        C375   1.362       .  D
C284        C366   1.443       .  S
H288        C375   1.087       .  S
O289       Ni297   1.914       .  S
O290       Ni297   1.919       .  S
O291       Ni297   1.915       .  S
O292       Ni297   1.920       .  S
O293       Ni298   1.921       .  S
O293        C302   1.281       .  A
O294       Ni298   1.917       .  S
O294        C301   1.279       .  A
O295       Ni298   1.921       .  S
O295        C300   1.281       .  A
O296       Ni298   1.917       .  S
O296        C299   1.279       .  A
C300        C365   1.438       .  S
C301        C367   1.432       .  S
C303        C304   1.521   1_545  S
C303        C309   1.526   1_545  S
C303        C363   1.465       .  S
C304        H311   1.083       .  S
C304        C489   1.374       .  D
C305        C396   1.374       .  D
C305        C898   1.502       .  S
C306        C308   1.540       .  S
C306        H312   1.109       .  S
C307        H313   1.087       .  S
C307        C492   1.363       .  D
C308        C399   1.363       .  D
C308        C412   1.464       .  S
C309        H498   1.087   1_565  S
C309        C494   1.362   1_554  D
C310        C401   1.362       .  D
C310        C362   1.443       .  S
H314        C401   1.087   1_545  S
C315        C316   1.536       .  S
C315        C321   1.535       .  S
C315        C871   1.536   1_455  S
C315        C358   1.466       .  S
C316        H323   1.086       .  S
C316        C409   1.366       .  D
C317        C318   1.531   1_556  S
C317        C500   1.366       .  D
C317        C463   1.464   1_556  S
C318        C322   1.526       .  S
C318        C872   1.531   1_454  S
C318        H324   1.112       .  S
C319        C867   1.536       .  S
C319        H325   1.086       .  S
C319        C412   1.365       .  D
C320        C870   1.531   1_556  S
C320        C503   1.365       .  D
C320        C492   1.464   1_556  S
C321        H418   1.087       .  S
C321        C414   1.360       .  D
C322        C505   1.360   1_554  D
C322        C359   1.438       .  S
H326        C505   1.087       .  S
O327       Ni335   1.911       .  S
O327        C337   1.278       .  A
O328       Ni335   1.916       .  S
O328        C338   1.279       .  A
O329       Ni335   1.915       .  S
O329        C339   1.279       .  A
O330       Ni335   1.924       .  S
O330        C340   1.281       .  A
O331       Ni336   1.923       .  S
O331        C892   1.281       .  A
O332       Ni336   1.915       .  S
O332        C891   1.279       .  A
O333       Ni336   1.918       .  S
O333        C890   1.280       .  A
O334       Ni336   1.911       .  S
O334        C889   1.279       .  A
Ni335      Ni888   2.395   1_455  S
Ni336      Ni887   2.395       .  S
C337        O886   1.279       .  A
C337        C355   1.426       .  S
C338        O885   1.280   1_455  A
C338        C357   1.434       .  S
C339        O884   1.279   1_455  A
C339        C360   1.431       .  S
C340        O883   1.281       .  A
C340        C353   1.442       .  S
C341        C342   1.517       .  S
C341        C347   1.515   1_554  S
C341        C345   1.517   1_455  S
C341        C356   1.460       .  S
C342        H349   1.083       .  S
C342        C527   1.370       .  D
C343        C344   1.557       .  S
C343        C434   1.370       .  D
C344        C348   1.559       .  S
C344        C346   1.557   1_455  S
C344        H350   1.107       .  S
C345        H903   1.083       .  S
C345        C530   1.370       .  D
C346        C437   1.370       .  D
C346        C857   1.502       .  S
C347        H536   1.087       .  S
C347        C532   1.362       .  D
C348        C439   1.362       .  D
C348        C354   1.445       .  S
H351        C897   1.083       .  S
H352        C439   1.087       .  S
C353        C354   1.209       .  T
C355        C356   1.201       .  T
C357        C358   1.205       .  T
C359        C360   1.204       .  T
C361        C362   1.207       .  T
C363        C364   1.204       .  T
C365        C366   1.207       .  T
C367        C368   1.204       .  T
C369        C370   1.526       .  S
C369        C375   1.526       .  S
C369        C460   1.466       .  S
C370        H377   1.087       .  S
C371        C462   1.364       .  D
C371        C501   1.464       .  S
C372        C374   1.551       .  S
C372        H378   1.109       .  S
C373        H379   1.083       .  S
C374        C465   1.374       .  D
C374        C435   1.503       .  S
C376        C467   1.362       .  D
C376        C458   1.443       .  S
H380        C467   1.087       .  S
O381       Ni389   1.914       .  S
O382       Ni389   1.919       .  S
O383       Ni389   1.915       .  S
O384       Ni389   1.920       .  S
O385       Ni390   1.921       .  S
O385        C394   1.281       .  A
O386       Ni390   1.917       .  S
O386        C393   1.279       .  A
O387       Ni390   1.921       .  S
O387        C392   1.281       .  A
O388       Ni390   1.917       .  S
O388        C391   1.279       .  A
C392        C457   1.438       .  S
C393        C459   1.432       .  S
C395        C396   1.521   1_545  S
C395        C401   1.526   1_545  S
C395        C455   1.465       .  S
C396        H403   1.083       .  S
C397        C488   1.374       .  D
C397        C990   1.502       .  S
C398        C400   1.540       .  S
C398        H404   1.109       .  S
C399        H405   1.087       .  S
C400        C491   1.363       .  D
C400        C504   1.464       .  S
C402        C493   1.362       .  D
C402        C454   1.443       .  S
H406        C493   1.087   1_545  S
C407        C408   1.536       .  S
C407        C413   1.535       .  S
C407        C963   1.536   1_455  S
C407        C450   1.466       .  S
C408        H415   1.086       .  S
C408        C501   1.366       .  D
C409        C410   1.531       .  S
C410        C414   1.526       .  S
C410        C964   1.531   1_455  S
C410        H416   1.112       .  S
C411        C959   1.536       .  S
C411        H417   1.086       .  S
C411        C504   1.365       .  D
C412        C962   1.531       .  S
C413        H510   1.087       .  S
C413        C506   1.360       .  D
C414        C451   1.438       .  S
O419       Ni427   1.911       .  S
O419        C429   1.278       .  A
O420       Ni427   1.916       .  S
O420        C430   1.279       .  A
O421       Ni427   1.915       .  S
O421        C431   1.279       .  A
O422       Ni427   1.924       .  S
O422        C432   1.281       .  A
O423       Ni428   1.923       .  S
O423        C984   1.281       .  A
O424       Ni428   1.915       .  S
O424        C983   1.279       .  A
O425       Ni428   1.918       .  S
O425        C982   1.280       .  A
O426       Ni428   1.911       .  S
O426        C981   1.279       .  A
Ni427      Ni980   2.395   1_455  S
Ni428      Ni979   2.395       .  S
C429        O978   1.279       .  A
C429        C447   1.426       .  S
C430        O977   1.280   1_455  A
C430        C449   1.434       .  S
C431        O976   1.279   1_455  A
C431        C452   1.431       .  S
C432        O975   1.281       .  A
C432        C445   1.442       .  S
C433        C434   1.517       .  S
C433        C439   1.515       .  S
C433        C437   1.517   1_455  S
C433        C448   1.460       .  S
C434        H441   1.083       .  S
C435        C436   1.557       .  S
C435        C526   1.370       .  D
C436        C440   1.559       .  S
C436        C438   1.557   1_455  S
C436        H442   1.107       .  S
C437        H995   1.083       .  S
C438        C529   1.370       .  D
C438        C949   1.502       .  S
C440        C531   1.362       .  D
C440        C446   1.445       .  S
H443        C989   1.083       .  S
H444        C531   1.087       .  S
C445        C446   1.209       .  T
C447        C448   1.201       .  T
C449        C450   1.205       .  T
C451        C452   1.204       .  T
C453        C454   1.207       .  T
C455        C456   1.204       .  T
C457        C458   1.207       .  T
C459        C460   1.204       .  T
C461        C462   1.526       .  S
C461        C467   1.526       .  S
C461        C552   1.466       .  S
C462        H469   1.087       .  S
C464        C466   1.551   1_556  S
C464        H470   1.109       .  S
C465        H471   1.083       .  S
C466        C527   1.503       .  S
C468        C550   1.443       .  S
O473       Ni481   1.914       .  S
O474       Ni481   1.919       .  S
O475       Ni481   1.915       .  S
O476       Ni481   1.920       .  S
O477       Ni482   1.921       .  S
O477        C486   1.281       .  A
O478       Ni482   1.917       .  S
O478        C485   1.279       .  A
O479       Ni482   1.921       .  S
O479        C484   1.281       .  A
O480       Ni482   1.917       .  S
O480        C483   1.279       .  A
C484        C549   1.438       .  S
C485        C551   1.432       .  S
C487        C488   1.521   1_545  S
C487        C493   1.526   1_545  S
C487        C547   1.465       .  S
C488        H495   1.083       .  S
C489       C1082   1.502       .  S
C490        C492   1.540   1_556  S
C490        H496   1.109       .  S
C491        H497   1.087       .  S
C494        C546   1.443       .  S
C499        C500   1.536       .  S
C499        C505   1.535       .  S
C499       C1055   1.536   1_455  S
C499        C542   1.466       .  S
C500        H507   1.086       .  S
C501        C502   1.531       .  S
C502        C506   1.526       .  S
C502       C1056   1.531   1_455  S
C502        H508   1.112       .  S
C503       C1051   1.536       .  S
C503        H509   1.086       .  S
C504       C1054   1.531       .  S
C506        C543   1.438       .  S
O511       Ni519   1.911       .  S
O511        C521   1.278       .  A
O512       Ni519   1.916       .  S
O512        C522   1.279       .  A
O513       Ni519   1.915       .  S
O513        C523   1.279       .  A
O514       Ni519   1.924       .  S
O514        C524   1.281       .  A
O515       Ni520   1.923       .  S
O515       C1076   1.281       .  A
O516       Ni520   1.915       .  S
O516       C1075   1.279       .  A
O517       Ni520   1.918       .  S
O517       C1074   1.280       .  A
O518       Ni520   1.911       .  S
O518       C1073   1.279       .  A
Ni519     Ni1072   2.395   1_455  S
Ni520     Ni1071   2.395       .  S
C521       O1070   1.279       .  A
C521        C539   1.426       .  S
C522       O1069   1.280   1_455  A
C522        C541   1.434       .  S
C523       O1068   1.279   1_455  A
C523        C544   1.431       .  S
C524       O1067   1.281       .  A
C524        C537   1.442       .  S
C525        C526   1.517       .  S
C525        C531   1.515       .  S
C525        C529   1.517   1_455  S
C525        C540   1.460       .  S
C526        H533   1.083       .  S
C527        C528   1.557   1_554  S
C528        C532   1.559       .  S
C528        C530   1.557   1_456  S
C528        H534   1.107       .  S
C529       H1087   1.083       .  S
C530       C1041   1.502       .  S
C532        C538   1.445       .  S
H535       C1081   1.083       .  S
C537        C538   1.209       .  T
C539        C540   1.201       .  T
C541        C542   1.205       .  T
C543        C544   1.204       .  T
C545        C546   1.207       .  T
C547        C548   1.204       .  T
C549        C550   1.207       .  T
C551        C552   1.204       .  T
C553        C554   1.526       .  S
C553        C559   1.526       .  S
C553        C833   1.521   1_545  S
C553        C644   1.466       .  S
C554        H561   1.087       .  S
C554        C739   1.364       .  D
C555        C832   1.541   1_545  S
C555        C646   1.364       .  D
C555        C685   1.464       .  S
C556        C831   1.541       .  S
C556        C836   1.544       .  S
C556        C558   1.551       .  S
C556        H562   1.109       .  S
C557        C829   1.521       .  S
C557        H563   1.083       .  S
C557        C742   1.374       .  D
C558        C649   1.374       .  D
C558        C619   1.503       .  S
C559        H748   1.087       .  S
C559        C744   1.362   1_544  D
C560        C832   1.544       .  S
C560        C651   1.362   1_565  D
C560        C642   1.443       .  S
H564        C651   1.087       .  S
O565       Ni573   1.914       .  S
O565        C851   1.279       .  A
O566       Ni573   1.919       .  S
O566        C852   1.279       .  A
O567       Ni573   1.915       .  S
O567        C853   1.280       .  A
O568       Ni573   1.920       .  S
O568        C854   1.280       .  A
O569       Ni574   1.921       .  S
O569        C578   1.281   1_545  A
O570       Ni574   1.917       .  S
O570        C577   1.279       .  A
O571       Ni574   1.921       .  S
O571        C576   1.281   1_545  A
O572       Ni574   1.917       .  S
O572        C575   1.279       .  A
Ni573      Ni850   2.394       .  S
Ni574      Ni849   2.394   1_545  S
C575        O841   1.279   1_545  A
C575        C916   1.432       .  S
C576        O842   1.279       .  A
C576        C641   1.438       .  S
C577        O843   1.280   1_545  A
C577        C643   1.432       .  S
C578        O844   1.280       .  A
C578        C913   1.438       .  S
C579        C580   1.521       .  S
C579        C585   1.526       .  S
C579        C859   1.525       .  S
C579        C639   1.465       .  S
C580        H587   1.083       .  S
C580        C765   1.374       .  D
C581        C858   1.551       .  S
C581        C672   1.374       .  D
C582        C857   1.551       .  S
C582        C862   1.544       .  S
C582        C584   1.540   1_565  S
C582        H588   1.109       .  S
C583        C855   1.525       .  S
C583        H589   1.087       .  S
C583        C768   1.363       .  D
C584        C675   1.363       .  D
C584        C688   1.464       .  S
C585        H774   1.087       .  S
C585        C770   1.362   1_554  D
C586        C858   1.544       .  S
C586        C677   1.362       .  D
C586        C638   1.443       .  S
H590        C677   1.087       .  S
C591        C592   1.536       .  S
C591        C597   1.535       .  S
C591        C634   1.466       .  S
C592        H599   1.086       .  S
C592        C685   1.366       .  D
C593        C594   1.531   1_556  S
C593        C776   1.366       .  D
C593        C739   1.464   1_556  S
C594        C598   1.526       .  S
C594        H600   1.112       .  S
C595        H601   1.086       .  S
C595        C688   1.365       .  D
C596        C779   1.365       .  D
C596        C768   1.464   1_556  S
C597        H694   1.087       .  S
C597        C690   1.360       .  D
C598        C781   1.360   1_554  D
C598        C635   1.438       .  S
H602        C781   1.087       .  S
O603       Ni611   1.911       .  S
O603        C613   1.278       .  A
O604       Ni611   1.916       .  S
O604        C614   1.279       .  A
O605       Ni611   1.915       .  S
O605        C615   1.279       .  A
O606       Ni611   1.924       .  S
O606        C616   1.281       .  A
O607       Ni612   1.923   1_455  S
O608       Ni612   1.915       .  S
O609       Ni612   1.918       .  S
O610       Ni612   1.911   1_455  S
C613        C631   1.426       .  S
C614        C633   1.434       .  S
C615        C636   1.431       .  S
C616        C629   1.442       .  S
C617        C618   1.517       .  S
C617        C623   1.515   1_554  S
C617        C621   1.517       .  S
C617        C632   1.460       .  S
C618        H625   1.083       .  S
C618        C803   1.370       .  D
C619        C620   1.557       .  S
C619        C710   1.370       .  D
C620        C624   1.559       .  S
C620        C622   1.557       .  S
C620        H626   1.107       .  S
C621        C806   1.370       .  D
C622        C713   1.370       .  D
C623        H812   1.087       .  S
C623        C808   1.362       .  D
C624        C715   1.362       .  D
C624        C630   1.445       .  S
H628        C715   1.087       .  S
C629        C630   1.209       .  T
C631        C632   1.201       .  T
C633        C634   1.205       .  T
C635        C636   1.204       .  T
C637        C854   1.438       .  S
C637        C638   1.207       .  T
C639        C640   1.204       .  T
C640        C851   1.432       .  S
C641        C642   1.207       .  T
C643        C644   1.204       .  T
C645        C646   1.526       .  S
C645        C651   1.526       .  S
C645        C925   1.521   1_545  S
C645        C736   1.466       .  S
C646        H653   1.087       .  S
C647        C924   1.541   1_545  S
C647        C738   1.364       .  D
C647        C777   1.464       .  S
C648        C923   1.541       .  S
C648        C928   1.544       .  S
C648        C650   1.551       .  S
C648        H654   1.109       .  S
C649        C921   1.521       .  S
C649        H655   1.083       .  S
C650        C741   1.374       .  D
C650        C711   1.503       .  S
C652        C924   1.544       .  S
C652        C743   1.362   1_565  D
C652        C734   1.443       .  S
H656        C743   1.087       .  S
O657       Ni665   1.914       .  S
O657        C943   1.279       .  A
O658       Ni665   1.919       .  S
O658        C944   1.279       .  A
O659       Ni665   1.915       .  S
O659        C945   1.280       .  A
O660       Ni665   1.920       .  S
O660        C946   1.280       .  A
O661       Ni666   1.921       .  S
O661        C670   1.281   1_545  A
O662       Ni666   1.917       .  S
O662        C669   1.279       .  A
O663       Ni666   1.921       .  S
O663        C668   1.281   1_545  A
O664       Ni666   1.917       .  S
O664        C667   1.279       .  A
Ni665      Ni942   2.394       .  S
Ni666      Ni941   2.394   1_545  S
C667        O933   1.279   1_545  A
C667       C1008   1.432       .  S
C668        O934   1.279       .  A
C668        C733   1.438       .  S
C669        O935   1.280   1_545  A
C669        C735   1.432       .  S
C670        O936   1.280       .  A
C670       C1005   1.438       .  S
C671        C672   1.521       .  S
C671        C677   1.526       .  S
C671        C951   1.525       .  S
C671        C731   1.465       .  S
C672        H679   1.083       .  S
C673        C950   1.551       .  S
C673        C764   1.374       .  D
C674        C949   1.551       .  S
C674        C954   1.544       .  S
C674        C676   1.540   1_565  S
C674        H680   1.109       .  S
C675        C947   1.525       .  S
C675        H681   1.087       .  S
C676        C767   1.363       .  D
C676        C780   1.464       .  S
C678        C950   1.544       .  S
C678        C769   1.362       .  D
C678        C730   1.443       .  S
H682        C769   1.087       .  S
C683        C684   1.536       .  S
C683        C689   1.535       .  S
C683        C726   1.466       .  S
C684        H691   1.086       .  S
C684        C777   1.366       .  D
C685        C686   1.531       .  S
C686        C690   1.526       .  S
C686        H692   1.112       .  S
C687        H693   1.086       .  S
C687        C780   1.365       .  D
C689        H786   1.087       .  S
C689        C782   1.360       .  D
C690        C727   1.438       .  S
O695       Ni703   1.911       .  S
O695        C705   1.278       .  A
O696       Ni703   1.916       .  S
O696        C706   1.279       .  A
O697       Ni703   1.915       .  S
O697        C707   1.279       .  A
O698       Ni703   1.924       .  S
O698        C708   1.281       .  A
O699       Ni704   1.923   1_455  S
O700       Ni704   1.915       .  S
O701       Ni704   1.918       .  S
O702       Ni704   1.911   1_455  S
C705        C723   1.426       .  S
C706        C725   1.434       .  S
C707        C728   1.431       .  S
C708        C721   1.442       .  S
C709        C710   1.517       .  S
C709        C715   1.515       .  S
C709        C713   1.517       .  S
C709        C724   1.460       .  S
C710        H717   1.083       .  S
C711        C712   1.557       .  S
C711        C802   1.370       .  D
C712        C716   1.559       .  S
C712        C714   1.557       .  S
C712        H718   1.107       .  S
C714        C805   1.370       .  D
C716        C807   1.362       .  D
C716        C722   1.445       .  S
H720        C807   1.087       .  S
C721        C722   1.209       .  T
C723        C724   1.201       .  T
C725        C726   1.205       .  T
C727        C728   1.204       .  T
C729        C946   1.438       .  S
C729        C730   1.207       .  T
C731        C732   1.204       .  T
C732        C943   1.432       .  S
C733        C734   1.207       .  T
C735        C736   1.204       .  T
C737        C738   1.526       .  S
C737        C743   1.526       .  S
C737       C1017   1.521   1_545  S
C737        C828   1.466       .  S
C738        H745   1.087       .  S
C739       C1016   1.541   1_544  S
C740       C1015   1.541   1_556  S
C740       C1020   1.544       .  S
C740        C742   1.551   1_556  S
C740        H746   1.109       .  S
C741       C1013   1.521       .  S
C741        H747   1.083       .  S
C742        C803   1.503       .  S
C744       C1016   1.544       .  S
C744        C826   1.443       .  S
O749       Ni757   1.914       .  S
O749       C1035   1.279       .  A
O750       Ni757   1.919       .  S
O750       C1036   1.279       .  A
O751       Ni757   1.915       .  S
O751       C1037   1.280       .  A
O752       Ni757   1.920       .  S
O752       C1038   1.280       .  A
O753       Ni758   1.921       .  S
O753        C762   1.281   1_545  A
O754       Ni758   1.917       .  S
O754        C761   1.279       .  A
O755       Ni758   1.921       .  S
O755        C760   1.281   1_545  A
O756       Ni758   1.917       .  S
O756        C759   1.279       .  A
Ni757     Ni1034   2.394       .  S
Ni758     Ni1033   2.394   1_545  S
C759       O1025   1.279   1_545  A
C759       C1100   1.432       .  S
C760       O1026   1.279       .  A
C760        C825   1.438       .  S
C761       O1027   1.280   1_545  A
C761        C827   1.432       .  S
C762       O1028   1.280       .  A
C762       C1097   1.438       .  S
C763        C764   1.521       .  S
C763        C769   1.526       .  S
C763       C1043   1.525       .  S
C763        C823   1.465       .  S
C764        H771   1.083       .  S
C765       C1042   1.551   1_554  S
C766       C1041   1.551   1_556  S
C766       C1046   1.544       .  S
C766        C768   1.540   1_566  S
C766        H772   1.109       .  S
C767       C1039   1.525       .  S
C767        H773   1.087       .  S
C770       C1042   1.544       .  S
C770        C822   1.443       .  S
C775        C776   1.536       .  S
C775        C781   1.535       .  S
C775        C818   1.466       .  S
C776        H783   1.086       .  S
C777        C778   1.531       .  S
C778        C782   1.526       .  S
C778        H784   1.112       .  S
C779        H785   1.086       .  S
C782        C819   1.438       .  S
O787       Ni795   1.911       .  S
O787        C797   1.278       .  A
O788       Ni795   1.916       .  S
O788        C798   1.279       .  A
O789       Ni795   1.915       .  S
O789        C799   1.279       .  A
O790       Ni795   1.924       .  S
O790        C800   1.281       .  A
O791       Ni796   1.923   1_455  S
O792       Ni796   1.915       .  S
O793       Ni796   1.918       .  S
O794       Ni796   1.911   1_455  S
C797        C815   1.426       .  S
C798        C817   1.434       .  S
C799        C820   1.431       .  S
C800        C813   1.442       .  S
C801        C802   1.517       .  S
C801        C807   1.515       .  S
C801        C805   1.517       .  S
C801        C816   1.460       .  S
C802        H809   1.083       .  S
C803        C804   1.557   1_554  S
C804        C808   1.559       .  S
C804        C806   1.557   1_556  S
C804        H810   1.107       .  S
C808        C814   1.445       .  S
C813        C814   1.209       .  T
C815        C816   1.201       .  T
C817        C818   1.205       .  T
C819        C820   1.204       .  T
C821       C1038   1.438       .  S
C821        C822   1.207       .  T
C823        C824   1.204       .  T
C824       C1035   1.432       .  S
C825        C826   1.207       .  T
C827        C828   1.204       .  T
C829        C830   1.526       .  S
C829        C835   1.526       .  S
C829        C920   1.466       .  S
C830        H837   1.087       .  S
C830       C1015   1.364       .  D
C831        C922   1.364       .  D
C831        C961   1.464       .  S
C832        C834   1.551       .  S
C832        H838   1.109       .  S
C833        H839   1.083       .  S
C833       C1018   1.374       .  D
C834        C925   1.374       .  D
C834        C895   1.503       .  S
C835       H1024   1.087       .  S
C835       C1020   1.362   1_554  D
C836        C927   1.362       .  D
C836        C918   1.443       .  S
H840        C927   1.087       .  S
O841       Ni849   1.914       .  S
O842       Ni849   1.919       .  S
O843       Ni849   1.915       .  S
O844       Ni849   1.920       .  S
O845       Ni850   1.921       .  S
O845        C854   1.281       .  A
O846       Ni850   1.917       .  S
O846        C853   1.279       .  A
O847       Ni850   1.921       .  S
O847        C852   1.281       .  A
O848       Ni850   1.917       .  S
O848        C851   1.279       .  A
C852        C917   1.438       .  S
C853        C919   1.432       .  S
C855        C856   1.521   1_545  S
C855        C861   1.526   1_545  S
C855        C915   1.465       .  S
C856        H863   1.083       .  S
C856       C1041   1.374       .  D
C857        C948   1.374       .  D
C858        C860   1.540       .  S
C858        H864   1.109       .  S
C859        H865   1.087       .  S
C859       C1044   1.363       .  D
C860        C951   1.363       .  D
C860        C964   1.464       .  S
C861       H1050   1.087   1_565  S
C861       C1046   1.362   1_554  D
C862        C953   1.362       .  D
C862        C914   1.443       .  S
H866        C953   1.087   1_545  S
C867        C868   1.536       .  S
C867        C873   1.535       .  S
C867        C910   1.466       .  S
C868        H875   1.086       .  S
C868        C961   1.366       .  D
C869        C870   1.531   1_556  S
C869       C1052   1.366       .  D
C869       C1015   1.464   1_556  S
C870        C874   1.526       .  S
C870        H876   1.112       .  S
C871        H877   1.086       .  S
C871        C964   1.365       .  D
C872       C1055   1.365       .  D
C872       C1044   1.464   1_556  S
C873        H970   1.087       .  S
C873        C966   1.360       .  D
C874       C1057   1.360   1_554  D
C874        C911   1.438       .  S
H878       C1057   1.087       .  S
O879       Ni887   1.911       .  S
O879        C889   1.278       .  A
O880       Ni887   1.916       .  S
O880        C890   1.279       .  A
O881       Ni887   1.915       .  S
O881        C891   1.279       .  A
O882       Ni887   1.924       .  S
O882        C892   1.281       .  A
O883       Ni888   1.923   1_455  S
O884       Ni888   1.915       .  S
O885       Ni888   1.918       .  S
O886       Ni888   1.911   1_455  S
C889        C907   1.426       .  S
C890        C909   1.434       .  S
C891        C912   1.431       .  S
C892        C905   1.442       .  S
C893        C894   1.517       .  S
C893        C899   1.515   1_554  S
C893        C897   1.517       .  S
C893        C908   1.460       .  S
C894        H901   1.083       .  S
C894       C1079   1.370       .  D
C895        C896   1.557       .  S
C895        C986   1.370       .  D
C896        C900   1.559       .  S
C896        C898   1.557       .  S
C896        H902   1.107       .  S
C897       C1082   1.370       .  D
C898        C989   1.370       .  D
C899       H1088   1.087       .  S
C899       C1084   1.362       .  D
C900        C991   1.362       .  D
C900        C906   1.445       .  S
H904        C991   1.087       .  S
C905        C906   1.209       .  T
C907        C908   1.201       .  T
C909        C910   1.205       .  T
C911        C912   1.204       .  T
C913        C914   1.207       .  T
C915        C916   1.204       .  T
C917        C918   1.207       .  T
C919        C920   1.204       .  T
C921        C922   1.526       .  S
C921        C927   1.526       .  S
C921       C1012   1.466       .  S
C922        H929   1.087       .  S
C923       C1014   1.364       .  D
C923       C1053   1.464       .  S
C924        C926   1.551       .  S
C924        H930   1.109       .  S
C925        H931   1.083       .  S
C926       C1017   1.374       .  D
C926        C987   1.503       .  S
C928       C1019   1.362       .  D
C928       C1010   1.443       .  S
H932       C1019   1.087       .  S
O933       Ni941   1.914       .  S
O934       Ni941   1.919       .  S
O935       Ni941   1.915       .  S
O936       Ni941   1.920       .  S
O937       Ni942   1.921       .  S
O937        C946   1.281       .  A
O938       Ni942   1.917       .  S
O938        C945   1.279       .  A
O939       Ni942   1.921       .  S
O939        C944   1.281       .  A
O940       Ni942   1.917       .  S
O940        C943   1.279       .  A
C944       C1009   1.438       .  S
C945       C1011   1.432       .  S
C947        C948   1.521   1_545  S
C947        C953   1.526   1_545  S
C947       C1007   1.465       .  S
C948        H955   1.083       .  S
C949       C1040   1.374       .  D
C950        C952   1.540       .  S
C950        H956   1.109       .  S
C951        H957   1.087       .  S
C952       C1043   1.363       .  D
C952       C1056   1.464       .  S
C954       C1045   1.362       .  D
C954       C1006   1.443       .  S
H958       C1045   1.087   1_545  S
C959        C960   1.536       .  S
C959        C965   1.535       .  S
C959       C1002   1.466       .  S
C960        H967   1.086       .  S
C960       C1053   1.366       .  D
C961        C962   1.531       .  S
C962        C966   1.526       .  S
C962        H968   1.112       .  S
C963        H969   1.086       .  S
C963       C1056   1.365       .  D
C965       H1062   1.087       .  S
C965       C1058   1.360       .  D
C966       C1003   1.438       .  S
O971       Ni979   1.911       .  S
O971        C981   1.278       .  A
O972       Ni979   1.916       .  S
O972        C982   1.279       .  A
O973       Ni979   1.915       .  S
O973        C983   1.279       .  A
O974       Ni979   1.924       .  S
O974        C984   1.281       .  A
O975       Ni980   1.923   1_455  S
O976       Ni980   1.915       .  S
O977       Ni980   1.918       .  S
O978       Ni980   1.911   1_455  S
C981        C999   1.426       .  S
C982       C1001   1.434       .  S
C983       C1004   1.431       .  S
C984        C997   1.442       .  S
C985        C986   1.517       .  S
C985        C991   1.515       .  S
C985        C989   1.517       .  S
C985       C1000   1.460       .  S
C986        H993   1.083       .  S
C987        C988   1.557       .  S
C987       C1078   1.370       .  D
C988        C992   1.559       .  S
C988        C990   1.557       .  S
C988        H994   1.107       .  S
C990       C1081   1.370       .  D
C992       C1083   1.362       .  D
C992        C998   1.445       .  S
H996       C1083   1.087       .  S
C997        C998   1.209       .  T
C999       C1000   1.201       .  T
C1001      C1002   1.205       .  T
C1003      C1004   1.204       .  T
C1005      C1006   1.207       .  T
C1007      C1008   1.204       .  T
C1009      C1010   1.207       .  T
C1011      C1012   1.204       .  T
C1013      C1014   1.526       .  S
C1013      C1019   1.526       .  S
C1013      C1104   1.466       .  S
C1014      H1021   1.087       .  S
C1016      C1018   1.551   1_556  S
C1016      H1022   1.109       .  S
C1017      H1023   1.083       .  S
C1018      C1079   1.503       .  S
C1020      C1102   1.443       .  S
O1025     Ni1033   1.914       .  S
O1026     Ni1033   1.919       .  S
O1027     Ni1033   1.915       .  S
O1028     Ni1033   1.920       .  S
O1029     Ni1034   1.921       .  S
O1029      C1038   1.281       .  A
O1030     Ni1034   1.917       .  S
O1030      C1037   1.279       .  A
O1031     Ni1034   1.921       .  S
O1031      C1036   1.281       .  A
O1032     Ni1034   1.917       .  S
O1032      C1035   1.279       .  A
C1036      C1101   1.438       .  S
C1037      C1103   1.432       .  S
C1039      C1040   1.521   1_545  S
C1039      C1045   1.526   1_545  S
C1039      C1099   1.465       .  S
C1040      H1047   1.083       .  S
C1042      C1044   1.540   1_556  S
C1042      H1048   1.109       .  S
C1043      H1049   1.087       .  S
C1046      C1098   1.443       .  S
C1051      C1052   1.536       .  S
C1051      C1057   1.535       .  S
C1051      C1094   1.466       .  S
C1052      H1059   1.086       .  S
C1053      C1054   1.531       .  S
C1054      C1058   1.526       .  S
C1054      H1060   1.112       .  S
C1055      H1061   1.086       .  S
C1058      C1095   1.438       .  S
O1063     Ni1071   1.911       .  S
O1063      C1073   1.278       .  A
O1064     Ni1071   1.916       .  S
O1064      C1074   1.279       .  A
O1065     Ni1071   1.915       .  S
O1065      C1075   1.279       .  A
O1066     Ni1071   1.924       .  S
O1066      C1076   1.281       .  A
O1067     Ni1072   1.923   1_455  S
O1068     Ni1072   1.915       .  S
O1069     Ni1072   1.918       .  S
O1070     Ni1072   1.911   1_455  S
C1073      C1091   1.426       .  S
C1074      C1093   1.434       .  S
C1075      C1096   1.431       .  S
C1076      C1089   1.442       .  S
C1077      C1078   1.517       .  S
C1077      C1083   1.515       .  S
C1077      C1081   1.517       .  S
C1077      C1092   1.460       .  S
C1078      H1085   1.083       .  S
C1079      C1080   1.557   1_554  S
C1080      C1084   1.559       .  S
C1080      C1082   1.557   1_556  S
C1080      H1086   1.107       .  S
C1084      C1090   1.445       .  S
C1089      C1090   1.209       .  T
C1091      C1092   1.201       .  T
C1093      C1094   1.205       .  T
C1095      C1096   1.204       .  T
C1097      C1098   1.207       .  T
C1099      C1100   1.204       .  T
C1101      C1102   1.207       .  T
C1103      C1104   1.204       .  T
