geometry optimzed in LAMMPS
_audit_creation_date              2020-11-30 
_audit_creation_method            'lammps2cif' 
_symmetry_space_group_name_H-M    'P1' 
_symmetry_Int_Tables_number       1 
_symmetry_cell_setting            triclinic 
loop_ 
_symmetry_equiv_pos_as_xyz 
  x,y,z 
_cell_length_a                    36.23231205 
_cell_length_b                    34.890361716732464 
_cell_length_c                    39.685698503532336 
_cell_angle_alpha                 86.94977996257978 
_cell_angle_beta                  84.90409462079559 
_cell_angle_gamma                 90.40017243654519 
loop_ 
_atom_site_label 
_atom_site_type_symbol 
_atom_site_fract_x 
_atom_site_fract_y 
_atom_site_fract_z 
_atom_site_charge 
N1          N  0.33410083  0.07996334  0.41467193    -0.00900
C2          C  0.31443475  0.05524277  0.43837012     0.01700
C3          C  0.28103829  0.04789799  0.42559247    -0.21200
C4          C  0.28147679  0.06343745  0.39314450    -0.21400
C5          C  0.31478331  0.08215315  0.38659993     0.01600
H6          H  0.25973878  0.02916118  0.43753681     0.15400
H7          H  0.26185701  0.05712027  0.37511050     0.15400
N8          N  0.41854440  0.04090585  0.37415992    -0.00900
C9          C  0.42567546  0.00897737  0.39257681     0.01700
C10         C  0.39405174  0.98710246  0.40044919    -0.21200
C11         C  0.36614773  0.00625180  0.38566884    -0.21400
C12         C  0.38258518  0.03882746  0.36943178     0.01600
H13         H  0.39285703  0.45800763  0.41084956     0.15400
H14         H  0.33821017  0.99575261  0.38405753     0.15400
N15         N  0.42432970  0.12045161  0.41168407    -0.00900
C16         C  0.43436334  0.15471635  0.42393630     0.01700
C17         C  0.42806736  0.18472759  0.40201984    -0.21200
C18         C  0.42114816  0.16845993  0.37265169    -0.21400
C19         C  0.42270071  0.12887899  0.37798650     0.01600
H20         H  0.93246848  0.21451370  0.40595555     0.15400
H21         H  0.42052537  0.18432133  0.34922037     0.15400
N22         N  0.35833743  0.11073975  0.42091643    -0.00900
C23         C  0.34668640  0.13814774  0.44287980     0.01700
C24         C  0.36575553  0.13267199  0.47130992    -0.21200
C25         C  0.39077523  0.10392281  0.46536830    -0.21400
C26         C  0.39240358  0.10114957  0.43053928     0.01600
H27         H  0.36808965  0.15311926  0.49039225     0.15400
H28         H  0.41377471  0.09906752  0.48053500     0.15400
N29         N  0.44027453  0.10466255  0.35244700    -0.00900
C30         C  0.45872946  0.11632626  0.32235961     0.01700
C31         C  0.47563298  0.08632378  0.30643379    -0.21200
C32         C  0.46535997  0.05437076  0.32609035    -0.21400
C33         C  0.44466673  0.06616703  0.35478375     0.01600
H34         H  0.48766797  0.08666817  0.28042987     0.15400
H35         H  0.46690284  0.02589554  0.31670846     0.15400
N36         N  0.33371541  0.08308158  0.35313608    -0.00900
C37         C  0.32409897  0.09777170  0.32295936     0.01700
C38         C  0.35181081  0.09159317  0.29770128    -0.21200
C39         C  0.37750741  0.06925600  0.31184893    -0.21400
C40         C  0.36542576  0.06446454  0.34564352     0.01600
H41         H  0.35083268  0.09821830  0.27091382     0.15400
H42         H  0.40060410  0.05566140  0.29833765     0.15400
N43         N  0.11527003  0.17029213  0.39787521    -0.00900
C44         C  0.09527336  0.18930183  0.42341705     0.01700
C45         C  0.11756942  0.21484349  0.43707005    -0.21200
C46         C  0.15224841  0.21021250  0.42256745    -0.21400
C47         C  0.15176021  0.17787914  0.40364256     0.01600
H48         H  0.11041987  0.23190569  0.45864510     0.15400
H49         H  0.17540814  0.22378861  0.43241429     0.15400
N50         N  0.07172592  0.09461444  0.38555650    -0.00900
C51         C  0.04897010  0.07141577  0.40689478     0.01700
C52         C  0.01467604  0.08812200  0.41125277    -0.21200
C53         C  0.01738301  0.12370580  0.39480980    -0.21400
C54         C  0.05317958  0.12757940  0.38229582     0.01600
H55         H  0.98897097  0.07339074  0.42034694     0.15400
H56         H  0.99595740  0.14364251  0.38964057     0.15400
N57         N  0.14574153  0.08385492  0.41412046    -0.00900
C58         C  0.13568380  0.05122443  0.43392153     0.01700
C59         C  0.13641779  0.01951666  0.41464207    -0.21200
C60         C  0.14912689  0.03168004  0.38307078    -0.21400
C61         C  0.15087247  0.07128280  0.38260692     0.01600
H62         H  0.13113017  0.98984564  0.42311920     0.15400
H63         H  0.14887203  0.01478281  0.36138100     0.15400
N64         N  0.17830404  0.14814985  0.41349555    -0.00900
C65         C  0.21287748  0.15478129  0.42423264     0.01700
C66         C  0.23002597  0.12233211  0.43492768    -0.21200
C67         C  0.20631323  0.09378836  0.43148203    -0.21400
C68         C  0.17410684  0.10948188  0.42195186     0.01600
H69         H  0.25754287  0.11995229  0.44342933     0.15400
H70         H  0.21170962  0.06371564  0.43408867     0.15400
N71         N  0.13460667  0.09091519  0.35589707    -0.00900
C72         C  0.14776554  0.08392644  0.32385035     0.01700
C73         C  0.12095425  0.06560432  0.30775391    -0.21200
C74         C  0.08844969  0.06755747  0.32822276    -0.21400
C75         C  0.09779704  0.08325978  0.35771559     0.01600
H76         H  0.12432007  0.05338067  0.28326130     0.15400
H77         H  0.06115983  0.05977233  0.32163486     0.15400
N78         N  0.10179740  0.17264421  0.36415059    -0.00900
C79         C  0.12109532  0.17173820  0.33204897     0.01700
C80         C  0.09795010  0.15398042  0.31115286    -0.21200
C81         C  0.06321115  0.15200986  0.32682064    -0.21400
C82         C  0.06753711  0.15853390  0.35987252     0.01600
H83         H  0.10349683  0.14929054  0.28454954     0.15400
H84         H  0.04011173  0.13758937  0.31712882     0.15400
N85         N  0.19586517  0.41602802  0.41170266    -0.00900
C86         C  0.21156555  0.44244529  0.42992511     0.01700
C87         C  0.24569987  0.45408388  0.41505567    -0.21200
C88         C  0.24906524  0.43949139  0.38419028    -0.21400
C89         C  0.21651741  0.41961006  0.38094578     0.01600
H90         H  0.26594092  0.47196287  0.42483826     0.15400
H91         H  0.26983741  0.44942069  0.36438167     0.15400
N92         N  0.13798231  0.40522465  0.35898183    -0.00900
C93         C  0.10537206  0.40396465  0.37705456     0.01700
C94         C  0.08527390  0.37231379  0.36939384    -0.21200
C95         C  0.10657889  0.35396789  0.34543279    -0.21400
C96         C  0.13937431  0.37455455  0.34064346     0.01600
H97         H  0.05753041  0.36406540  0.37932908     0.15400
H98         H  0.09921479  0.32754065  0.33476120     0.15400
N99         N  0.16458442  0.32703025  0.39768089    -0.00900
C100        C  0.13079762  0.31498119  0.41337384     0.01700
C101        C  0.11755547  0.28583802  0.39563582    -0.21200
C102        C  0.14372663  0.27890420  0.36957936    -0.21400
C103        C  0.17109423  0.30658255  0.36948532     0.01600
H104        H  0.09057208  0.27216505  0.40015369     0.15400
H105        H  0.14021171  0.25907581  0.35041381     0.15400
N106        N  0.19331754  0.34519241  0.41308768    -0.00900
C107        C  0.21065330  0.32357688  0.43656817     0.01700
C108        C  0.20407952  0.33811252  0.46799018    -0.21200
C109        C  0.18721735  0.37214419  0.46326553    -0.21400
C110        C  0.18526186  0.37860925  0.42839810     0.01600
H111        H  0.21440896  0.32755517  0.49143628     0.15400
H112        H  0.18432688  0.39175080  0.48320983     0.15400
N113        N  0.18635842  0.32553124  0.33790043    -0.00900
C114        C  0.19942425  0.31041276  0.30867816     0.01700
C115        C  0.21016640  0.33981239  0.28531250    -0.21200
C116        C  0.19037107  0.37090236  0.29542878    -0.21400
C117        C  0.17450960  0.35994267  0.32708747     0.01600
H118        H  0.21659480  0.33514725  0.25882352     0.15400
H119        H  0.18232621  0.39455302  0.27902975     0.15400
N120        N  0.19899316  0.42969254  0.35068448    -0.00900
C121        C  0.21524570  0.44726248  0.32209853     0.01700
C122        C  0.18962095  0.46839760  0.30544909    -0.21200
C123        C  0.15609879  0.46067091  0.32294977    -0.21400
C124        C  0.16254224  0.43648089  0.35056184     0.01600
H125        H  0.19379880  0.48275542  0.28053822     0.15400
H126        H  0.12966418  0.46657347  0.31320636     0.22600
N127        N  0.44483126  0.38020971  0.35180906    -0.00900
C128        C  0.48118795  0.37803781  0.35639740     0.01700
C129        C  0.49907506  0.35408879  0.33383130    -0.21200
C130        C  0.47215169  0.33880873  0.31657382    -0.21400
C131        C  0.43894983  0.35341425  0.33005183     0.01600
H132        H  0.02843456  0.34889664  0.32968634     0.15400
H133        H  0.47577934  0.31519225  0.30003153     0.15400
N134        N  0.37363890  0.37842274  0.40756190    -0.00900
C135        C  0.34321786  0.39005435  0.42814036     0.01700
C136        C  0.31240222  0.38879986  0.41055527    -0.21200
C137        C  0.32489118  0.38967685  0.37697409    -0.21400
C138        C  0.36306715  0.38841969  0.37553666     0.01600
H139        H  0.28440392  0.39294026  0.42099177     0.15400
H140        H  0.30806536  0.39655032  0.35654428     0.15400
N141        N  0.45044098  0.31080932  0.40498665    -0.00900
C142        C  0.48385067  0.29856280  0.41651694     0.01700
C143        C  0.49812510  0.26931854  0.39730931    -0.21200
C144        C  0.47435252  0.26311808  0.37299247    -0.21400
C145        C  0.44494610  0.28767854  0.37832943     0.01600
H146        H  0.02414613  0.25489119  0.39984691     0.15400
H147        H  0.47851841  0.24297818  0.35330698     0.15400
N148        N  0.41647002  0.29281429  0.35454778    -0.00900
C149        C  0.39557497  0.26733352  0.33929325     0.01700
C150        C  0.36628845  0.28740868  0.32655030    -0.21200
C151        C  0.37782876  0.32474940  0.32270062    -0.21400
C152        C  0.40907981  0.32666474  0.33940042     0.01600
H153        H  0.34627352  0.27600549  0.31083744     0.15400
H154        H  0.36956050  0.34492248  0.30361041     0.15400
N155        N  0.38715960  0.33960667  0.41376030    -0.00900
C156        C  0.36769832  0.31678641  0.43884643     0.01700
C157        C  0.38569880  0.31597543  0.46760288    -0.21200
C158        C  0.42048970  0.33001544  0.45828491    -0.21400
C159        C  0.42287408  0.33534396  0.42315860     0.01600
H160        H  0.37682687  0.30000566  0.49065788     0.15400
H161        H  0.44293820  0.32474616  0.47395268     0.15400
N162        N  0.38614535  0.41301295  0.35038694    -0.00900
C163        C  0.37634908  0.44102876  0.32661274     0.01700
C164        C  0.40710966  0.46285494  0.31502606    -0.21200
C165        C  0.43674154  0.44556337  0.32830770    -0.21400
C166        C  0.42354732  0.41476167  0.34961573     0.01600
H167        H  0.40923478  0.48340613  0.29351783     0.15400
H168        H  0.46495901  0.45046485  0.31778246     0.15400
N169        N  0.11557529  0.38709301  0.08302937    -0.00900
C170        C  0.09667555  0.40055427  0.05698200     0.01700
C171        C  0.07624275  0.43145352  0.06819109    -0.21200
C172        C  0.07909784  0.43237730  0.10287006    -0.21400
C173        C  0.10337792  0.40390028  0.11224550     0.01600
H174        H  0.05535757  0.44618607  0.05469960     0.15400
H175        H  0.05910333  0.44642077  0.11947512     0.15400
N176        N  0.13263287  0.40843687  0.18797769    -0.00900
C177        C  0.11598881  0.44173901  0.19967598     0.01700
C178        C  0.14074218  0.46146467  0.21711405    -0.21200
C179        C  0.17325740  0.44183704  0.21567876    -0.21400
C180        C  0.16810398  0.41012770  0.19733291     0.01600
H181        H  0.13583357  0.48834618  0.22913341     0.15400
H182        H  0.19801108  0.45113853  0.22599719     0.15400
N183        N  0.19619689  0.38927700  0.09413480    -0.00900
C184        C  0.21031540  0.42182199  0.07628838     0.01700
C185        C  0.22986196  0.44388524  0.09674635    -0.21200
C186        C  0.22526199  0.42737531  0.12820808    -0.21400
C187        C  0.20470294  0.39427425  0.12632726     0.01600
H188        H  0.24245970  0.47192547  0.09064381     0.15400
H189        H  0.23662209  0.43817927  0.15023037     0.15400
N190        N  0.17657549  0.35734325  0.08278034    -0.00900
C191        C  0.18614247  0.31947080  0.08424178     0.01700
C192        C  0.15605241  0.29554574  0.08259869    -0.21200
C193        C  0.12637999  0.31815622  0.08044129    -0.21400
C194        C  0.13938869  0.35525843  0.08124810     0.01600
H195        H  0.15589718  0.26456172  0.08215641     0.15400
H196        H  0.09822889  0.30804693  0.07988858     0.15400
N197        N  0.19749958  0.38470480  0.18638613    -0.00900
C198        C  0.22874186  0.37487002  0.20113065     0.01700
C199        C  0.24391675  0.34340410  0.18588392    -0.21200
C200        C  0.22688616  0.34000229  0.15697547    -0.21400
C201        C  0.20016596  0.36791215  0.15620418     0.01600
H202        H  0.26984894  0.32997631  0.19094369     0.15400
H203        H  0.24246090  0.32984893  0.13519190     0.15400
N204        N  0.11695938  0.37658082  0.17239789    -0.00900
C205        C  0.11746996  0.33714788  0.18186307     0.01700
C206        C  0.09435203  0.31820819  0.16269353    -0.21200
C207        C  0.07982735  0.34435247  0.14126972    -0.21400
C208        C  0.09620196  0.37943430  0.14486648     0.01600
H209        H  0.08891751  0.28775426  0.16389711     0.15400
H210        H  0.06419548  0.33683715  0.12074171     0.15400
N211        N  0.37139934  0.36482714  0.09802568    -0.00900
C212        C  0.34334815  0.38434201  0.08416524     0.01700
C213        C  0.31307164  0.38475753  0.10747851    -0.21200
C214        C  0.32383718  0.37044715  0.13768993    -0.21400
C215        C  0.36141650  0.36302304  0.13299533     0.01600
H216        H  0.28738340  0.39876149  0.10391593     0.15400
H217        H  0.30851916  0.37485031  0.16164519     0.15400
N218        N  0.44813452  0.37516894  0.17473270    -0.00900
C219        C  0.47424637  0.39458001  0.19085554     0.01700
C220        C  0.49185260  0.36895953  0.21170183    -0.21200
C221        C  0.47705143  0.33328415  0.20876687    -0.21400
C222        C  0.44967917  0.33782380  0.18687383     0.01600
H223        H  0.01435570  0.37547379  0.22678643     0.15400
H224        H  0.98806936  0.30710024  0.21916642     0.15400
N225        N  0.44996570  0.34097652  0.07962544    -0.00900
C226        C  0.47865653  0.36197803  0.06354617     0.01700
C227        C  0.50304263  0.36828486  0.08761547    -0.21200
C228        C  0.49069815  0.34812391  0.11711421    -0.21400
C229        C  0.45792320  0.33095208  0.11153443     0.01600
H230        H  0.03060311  0.37843317  0.08259850     0.15400
H231        H  0.50547357  0.34412899  0.13936551     0.15400
N232        N  0.38346276  0.33132673  0.08089582    -0.00900
C233        C  0.36341319  0.30105545  0.06997282     0.01700
C234        C  0.38664806  0.27894220  0.04960287    -0.21200
C235        C  0.42081882  0.29588862  0.04614245    -0.21400
C236        C  0.41823316  0.32735547  0.06556354     0.01600
H237        H  0.37929374  0.25274511  0.03817918     0.15400
H238        H  0.44573741  0.28396246  0.03401002     0.15400
N239        N  0.43370036  0.30643773  0.17072301    -0.00900
C240        C  0.41294950  0.27560618  0.18470211     0.01700
C241        C  0.40125185  0.25476713  0.15892367    -0.21200
C242        C  0.41668747  0.27173677  0.12896018    -0.21400
C243        C  0.43566948  0.30415179  0.13659932     0.01600
H244        H  0.38793070  0.22674908  0.16165049     0.15400
H245        H  0.41705292  0.25886957  0.10496543     0.15400
N246        N  0.38486329  0.37641368  0.15959179    -0.00900
C247        C  0.37257730  0.40765162  0.17662663     0.01700
C248        C  0.39102137  0.44056938  0.16301444    -0.21200
C249        C  0.42101081  0.42786631  0.14400874    -0.21400
C250        C  0.42072236  0.38889089  0.15201827     0.01600
H251        H  0.38694919  0.46975010  0.17049838     0.15400
H252        H  0.44447113  0.44556920  0.13449740     0.15400
N253        N  0.39318077  0.13327980  0.07673063    -0.00900
C254        C  0.41800542  0.11512952  0.05422007     0.01700
C255        C  0.42331460  0.07772462  0.06652571    -0.21200
C256        C  0.41508956  0.07809579  0.10052468    -0.21400
C257        C  0.40229470  0.11450074  0.10634942     0.01600
H258        H  0.44172327  0.05683225  0.05502381     0.15400
H259        H  0.42628054  0.05814587  0.11870728     0.15400
N260        N  0.40708814  0.08878923  0.18295307    -0.00900
C261        C  0.42147373  0.05759608  0.19974557     0.01700
C262        C  0.39373077  0.03812920  0.22015283    -0.21200
C263        C  0.36135134  0.05643479  0.21583071    -0.21400
C264        C  0.37005553  0.08709392  0.19324115     0.01600
H265        H  0.39647372  0.51177294  0.23534297     0.15400
H266        H  0.33428203  0.04692318  0.22679410     0.15400
N267        N  0.33648414  0.06542735  0.09492131    -0.00900
C268        C  0.33223018  0.02737255  0.08961603     0.01700
C269        C  0.32558657  0.00687840  0.12027486    -0.21200
C270        C  0.32563726  0.03294000  0.14517628    -0.21400
C271        C  0.33230609  0.06889616  0.12919388     0.01600
H272        H  0.32044347  0.47628341  0.12412973     0.15400
H273        H  0.31915038  0.02628120  0.17191498     0.15400
N274        N  0.35377158  0.13143813  0.07149419    -0.00900
C275        C  0.33447495  0.15516717  0.04971197     0.01700
C276        C  0.31234200  0.13250500  0.03163045    -0.21200
C277        C  0.31357228  0.09591487  0.04425600    -0.21400
C278        C  0.33719551  0.09621131  0.06929292     0.01600
H279        H  0.29154787  0.14241800  0.01525699     0.15400
H280        H  0.29518871  0.07290011  0.03889928     0.15400
N281        N  0.34237393  0.10987587  0.17864229    -0.00900
C282        C  0.32397285  0.13951352  0.19328008     0.01700
C283        C  0.30825329  0.15978298  0.16745975    -0.21200
C284        C  0.30916111  0.13643938  0.14006169    -0.21400
C285        C  0.33059406  0.10555171  0.14763144     0.01600
H286        H  0.29137824  0.18494079  0.17080611     0.15400
H287        H  0.29171237  0.13845025  0.11946622     0.15400
N288        N  0.42624722  0.12044984  0.16442571    -0.00900
C289        C  0.44966109  0.14637461  0.17674213     0.01700
C290        C  0.46221978  0.17288745  0.15099040    -0.21200
C291        C  0.44379610  0.16571965  0.12331410    -0.21400
C292        C  0.42133185  0.13407832  0.13211931     0.01600
H293        H  0.47854603  0.19852110  0.15348704     0.15400
H294        H  0.44637897  0.18216854  0.09930952     0.15400
N295        N  0.10390869  0.16345662  0.08387013    -0.00900
C296        C  0.08080228  0.14127276  0.06567090     0.01700
C297        C  0.06167210  0.11304771  0.08598476    -0.21200
C298        C  0.06451905  0.12224655  0.11779336    -0.21400
C299        C  0.08805107  0.15332654  0.11624807     0.01600
H300        H  0.04025819  0.09399183  0.07882113     0.15400
H301        H  0.04552589  0.11249656  0.13903018     0.15400
N302        N  0.14554024  0.08978487  0.09555873    -0.00900
C303        C  0.13368955  0.05342214  0.09064381     0.01700
C304        C  0.12383072  0.03398675  0.12130755    -0.21200
C305        C  0.13079815  0.05832909  0.14604440    -0.21400
C306        C  0.14422993  0.09210796  0.12955201     0.01600
H307        H  0.11771996  0.00363029  0.12518368     0.15400
H308        H  0.12994381  0.05060933  0.17287156     0.15400
N309        N  0.09025365  0.12661764  0.18854262    -0.00900
C310        C  0.06747876  0.10463476  0.21160370     0.01700
C311        C  0.08421878  0.10161260  0.24147207    -0.21200
C312        C  0.12103693  0.10954887  0.23341551    -0.21400
C313        C  0.12371807  0.12202601  0.20020702     0.01600
H314        H  0.07274501  0.08653415  0.26442928     0.15400
H315        H  0.14324937  0.10472032  0.24928026     0.15400
N316        N  0.15746643  0.12885835  0.17937502    -0.00900
C317        C  0.18838862  0.14515909  0.18853077     0.01700
C318        C  0.21208043  0.15309908  0.15998919    -0.21200
C319        C  0.19715432  0.13724097  0.13347894    -0.21400
C320        C  0.16332255  0.12221274  0.14622217     0.01600
H321        H  0.23964465  0.16376952  0.15919744     0.15400
H322        H  0.21177496  0.13275351  0.10907163     0.15400
N323        N  0.08184468  0.16531764  0.17786217    -0.00900
C324        C  0.06787000  0.19446824  0.19745449     0.01700
C325        C  0.05211624  0.22093845  0.17586777    -0.21200
C326        C  0.06236252  0.21173212  0.14297854    -0.21400
C327        C  0.08195586  0.17815714  0.14488182     0.01600
H328        H  0.03929362  0.24761920  0.18296849     0.15400
H329        H  0.05505181  0.22720619  0.12020376     0.15400
N330        N  0.14422637  0.15908893  0.07856690    -0.00900
C331        C  0.16828472  0.18154548  0.05549762     0.01700
C332        C  0.17800807  0.15916615  0.02832210    -0.21200
C333        C  0.17228902  0.12173370  0.03949660    -0.21400
C334        C  0.15468180  0.12249187  0.07169211     0.01600
H335        H  0.19671965  0.16743045  0.00631536     0.15400
H336        H  0.18346936  0.09830805  0.02579236     0.15400
O337        O  0.23143970  0.27967181  0.10377142    -0.71800
O338        O  0.29850364  0.19654095  0.08797178    -0.71900
O339        O  0.30744463  0.27183877  0.09982071    -0.71900
O340        O  0.21849127  0.20584524  0.09129652    -0.72000
O341        O  0.22272785  0.22280872  0.03665224    -0.71900
O342        O  0.30917993  0.28725823  0.04460878    -0.71900
O343        O  0.30101798  0.21198877  0.03301260    -0.71900
O344        O  0.23548840  0.29725989  0.04885031    -0.71900
Ni345      Ni  0.26390227  0.23784275  0.09768466     1.25400
Ni346      Ni  0.26726574  0.25509645  0.03892393     1.25400
C347        C  0.22181567  0.30131709  0.07919810     0.90300
C348        C  0.31225610  0.19093974  0.05779730     0.90300
C349        C  0.32334816  0.28946791  0.07289905     0.90300
C350        C  0.20418353  0.20520452  0.06240702     0.90500
O351        O  0.13918669  0.29464682  0.29549213    -0.71800
O352        O  0.07386337  0.23708852  0.24435230    -0.71900
O353        O  0.10395311  0.23045874  0.30682572    -0.71900
O354        O  0.10528665  0.31092203  0.23811865    -0.72000
O355        O  0.15294152  0.28516732  0.20875454    -0.71900
O356        O  0.15358844  0.20295174  0.28158405    -0.71900
O357        O  0.12409297  0.21042990  0.21960547    -0.71900
O358        O  0.18768844  0.26829372  0.26746860    -0.71900
Ni359      Ni  0.10367706  0.26918513  0.27192524     1.25400
Ni360      Ni  0.15628389  0.24086614  0.24303732     1.25400
C361        C  0.17408659  0.28787652  0.29127167     0.90300
C362        C  0.08905093  0.21331252  0.22320261     0.90300
C363        C  0.12908128  0.20514353  0.30737891     0.90300
C364        C  0.12855028  0.31251825  0.21209166     0.90500
O365        O  0.21467164  0.09869079  0.22417590    -0.71800
O366        O  0.27495125  0.07380302  0.29620100    -0.71900
O367        O  0.20132784  0.07063820  0.28892621    -0.71900
O368        O  0.28728140  0.09725702  0.23057906    -0.72000
O369        O  0.28357464  0.15875484  0.24256116    -0.71900
O370        O  0.19780649  0.13000736  0.30702659    -0.71900
O371        O  0.27355976  0.13509292  0.30989065    -0.71900
O372        O  0.20966057  0.15868148  0.24102447    -0.71900
Ni373      Ni  0.24452224  0.08296158  0.25980542     1.25400
Ni374      Ni  0.24084209  0.14781080  0.27620296     1.25400
C375        C  0.20410904  0.13355035  0.21991880     0.90300
C376        C  0.28713417  0.10162982  0.31214886     0.90300
C377        C  0.18470161  0.09539995  0.30691191     0.90300
C378        C  0.29850905  0.13185432  0.22486760     0.90500
O379        O  0.47059482  0.18255629  0.22159128    -0.71800
O380        O  0.44509861  0.24374272  0.29969851    -0.71900
O381        O  0.47294835  0.17284883  0.28972515    -0.71900
O382        O  0.44721209  0.25495881  0.23027411    -0.72000
O383        O  0.39019175  0.23104637  0.23024225    -0.71900
O384        O  0.41457307  0.15071537  0.29405361    -0.71900
O385        O  0.38762515  0.22070437  0.29992757    -0.71900
O386        O  0.41323694  0.15801839  0.22679789    -0.71900
Ni387      Ni  0.46114587  0.21440096  0.26040343     1.25400
Ni388      Ni  0.39933219  0.18957397  0.26305442     1.25400
C389        C  0.44527039  0.16099001  0.21104179     0.90300
C390        C  0.41116684  0.24172234  0.31270388     0.90300
C391        C  0.44817391  0.14858959  0.30150730     0.90300
C392        C  0.41598901  0.25485238  0.21799175     0.90500
O393        O  0.34068650  0.38066119  0.23144912    -0.71800
O394        O  0.26381772  0.40215386  0.30479518    -0.71900
O395        O  0.26784621  0.37324626  0.24304250    -0.71900
O396        O  0.33819634  0.40146546  0.29925880    -0.72000
O397        O  0.33724737  0.46253758  0.28111022    -0.71900
O398        O  0.26107523  0.43217794  0.22108047    -0.71900
O399        O  0.26338049  0.46218492  0.28272304    -0.71900
O400        O  0.33561230  0.44192527  0.21441345    -0.71900
Ni401      Ni  0.30310160  0.38731428  0.27053691     1.25400
Ni402      Ni  0.29954760  0.45198491  0.24907833     1.25400
C403        C  0.34828705  0.40889504  0.20913150     0.90300
C404        C  0.25010296  0.43638674  0.30372300     0.90300
C405        C  0.25195075  0.39594593  0.22351311     0.90300
C406        C  0.34830358  0.43560959  0.30179201     0.90500
O407        O  0.32263963  0.19313136  0.40674277    -0.71800
O408        O  0.25476612  0.28275293  0.40313893    -0.71900
O409        O  0.33067531  0.27601177  0.40636141    -0.71900
O410        O  0.24995576  0.20551195  0.39931444    -0.72000
O411        O  0.24164394  0.19899962  0.45578401    -0.71900
O412        O  0.32015593  0.27199975  0.46249425    -0.71900
O413        O  0.24614435  0.27476930  0.45924547    -0.71900
O414        O  0.31379013  0.19250112  0.46276890    -0.71900
Ni415      Ni  0.29038972  0.23976233  0.40170712     1.25400
Ni416      Ni  0.28035818  0.23462045  0.46184951     1.25400
C417        C  0.32662141  0.17615436  0.43625455     0.90300
C418        C  0.23799806  0.29181545  0.43175065     0.90300
C419        C  0.33767742  0.28740259  0.43535779     0.90300
C420        C  0.23372407  0.18989277  0.42633290     0.90500
O421        O  0.06900692  0.47589756  0.16954194    -0.71800
O422        O  0.47708907  0.03446415  0.16844067    -0.71900
O423        O  0.04849626  0.05428736  0.17426683    -0.71900
O424        O  0.49685552  0.45658103  0.16422690    -0.72000
O425        O  0.48706175  0.44945857  0.22030189    -0.71900
O426        O  0.03954188  0.04331785  0.22991318    -0.71900
O427        O  0.46952801  0.02504404  0.22456162    -0.71900
O428        O  0.05889258  0.46605187  0.22516370    -0.71900
Ni429      Ni  0.02324782  0.50561214  0.16695298     1.25400
Ni430      Ni  0.01358995  0.49570719  0.22671998     1.25400
C431        C  0.07832904  0.45968633  0.19734989     0.90300
C432        C  0.45875678  0.04002747  0.19697117     0.90300
C433        C  0.05052489  0.06598927  0.20432458     0.90300
C434        C  0.48452805  0.43636203  0.19107773     0.90500
O435        O  0.48262150  0.99391550  0.36560339    -0.71800
O436        O  0.07979962  0.46015284  0.36244112    -0.71900
O437        O  0.51723966  0.43074874  0.34904568    -0.71900
O438        O  0.04675777  0.02307334  0.37416340    -0.72000
O439        O  0.04049608  0.00662769  0.42937050    -0.71900
O440        O  0.49833658  0.41273158  0.40273533    -0.71900
O441        O  0.06690277  0.43527225  0.41534829    -0.71900
O442        O  0.47288313  0.98030688  0.42109204    -0.71900
Ni443      Ni  0.03200513  0.47779317  0.36106874     1.25400
Ni444      Ni  0.01981519  0.45779236  0.41975434     1.25400
C445        C  0.46217317  0.99380174  0.39341338     0.90300
C446        C  0.08608192  0.43693972  0.38684236     0.90300
C447        C  0.50041618  0.40784922  0.37072333     0.90300
C448        C  0.04789670  0.03112405  0.40428894     0.90500
O449        O  0.21243316  0.48760702  0.47059806    -0.71800
O450        O  0.17737858  0.03758185  0.04769403    -0.71900
O451        O  0.21524166  0.47331573  0.03586292    -0.71900
O452        O  0.17135515  0.05009482  0.48128557    -0.72000
O453        O  0.11995359  0.01478204  0.48383034    -0.71900
O454        O  0.16287169  0.43915768  0.04067401    -0.71900
O455        O  0.12379292  0.00551269  0.05120696    -0.71900
O456        O  0.16097263  0.45200384  0.47266760    -0.71900
Ni457      Ni  0.19575707  0.51345932  0.00885496     1.25400
Ni458      Ni  0.13981027  0.47648828  0.51243744     1.25400
C459        C  0.19373861  0.46110592  0.45926290     0.90300
C460        C  0.14474990  0.03174632  0.06118183     0.90300
C461        C  0.19593188  0.44398833  0.04805223     0.90300
C462        C  0.14071296  0.04177490  0.46970484     0.90500
O463        O  0.05320654  0.14066089  0.45163677    -0.71800
O464        O  0.47682119  0.10884380  0.02174471    -0.71900
O465        O  0.47715555  0.12640204  0.45780167    -0.71900
O466        O  0.05306080  0.12310126  0.01771750    -0.72000
O467        O  0.03945468  0.18207114  0.03299874    -0.71900
O468        O  0.46835082  0.18849019  0.46374376    -0.71900
O469        O  0.46076088  0.16886731  0.03083380    -0.71900
O470        O  0.04338315  0.20112920  0.46412363    -0.71900
Ni471      Ni  0.01555512  0.12293685  0.48692006     1.25400
Ni472      Ni  0.00283513  0.18762272  0.49862673     1.25400
C473        C  0.06136571  0.17627110  0.44625755     0.90300
C474        C  0.45327052  0.13258455  0.03479364     0.90300
C475        C  0.46052705  0.15709674  0.45031411     0.90300
C476        C  0.05902106  0.15135576  0.03588919     0.90500
O477        O  0.30407399  0.99232950  0.04808860    -0.71800
O478        O  0.31072610  0.42605486  0.47225624    -0.71900
O479        O  0.31269127  0.41686167  0.04083917    -0.71900
O480        O  0.29977264  0.00402452  0.48007642    -0.72000
O481        O  0.36015418  0.01365305  0.46888558    -0.71900
O482        O  0.37350125  0.42737105  0.03738405    -0.71900
O483        O  0.37193492  0.43248208  0.46684797    -0.71900
O484        O  0.36447484  0.00526481  0.03867640    -0.71900
Ni485      Ni  0.30492887  0.45958934  0.01018510     1.25400
Ni486      Ni  0.36985254  0.47003013  0.00233939     1.25400
C487        C  0.33349944  0.00860882  0.05657046     0.90300
C488        C  0.34244175  0.41684724  0.45759876     0.90300
C489        C  0.34423067  0.40942046  0.05160652     0.90300
C490        C  0.32651049  0.02392230  0.46423807     0.90500
O491        O  0.50483688  0.38158197  0.00643952    -0.71800
O492        O  0.08856680  0.36216866  0.43960672    -0.71900
O493        O  0.51188118  0.35144488  0.44256322    -0.71900
O494        O  0.07720784  0.39769315  0.00095666    -0.72000
O495        O  0.08250906  0.34151491  0.02878684    -0.71900
O496        O  0.02302715  0.29309676  0.46400428    -0.71900
O497        O  0.09738398  0.30675667  0.46737046    -0.71900
O498        O  0.01096040  0.32156370  0.02696937    -0.71900
Ni499      Ni  0.04543074  0.37515926  0.47106822     1.25400
Ni500      Ni  0.05396970  0.31372829  0.49749693     1.25400
C501        C  0.49646834  0.35450690  0.02939376     0.90300
C502        C  0.10643832  0.33032147  0.44237491     0.90300
C503        C  0.50654407  0.31519767  0.44288772     0.90300
C504        C  0.08681456  0.37847206  0.02692040     0.90500
N505        N  0.33410063  0.07996160  0.91467211    -0.00900
C506        C  0.31443462  0.05524110  0.93837050     0.01700
C507        C  0.28103830  0.04789594  0.92559278    -0.21200
C508        C  0.28147673  0.06343492  0.89314466    -0.21400
C509        C  0.31478308  0.08215099  0.88660011     0.01600
H510        H  0.25973875  0.02915906  0.93753737     0.15400
H511        H  0.26185717  0.05711730  0.87511058     0.15400
N512        N  0.41854433  0.04090500  0.87416090    -0.00900
C513        C  0.42567598  0.00897691  0.89257813     0.01700
C514        C  0.39405259  0.98710133  0.90045056    -0.21200
C515        C  0.36614797  0.00624984  0.88566984    -0.21400
C516        C  0.38258519  0.03882564  0.86943245     0.01600
H517        H  0.39285447  0.45800847  0.91084784     0.15400
H518        H  0.33821113  0.99575015  0.88405875     0.15400
N519        N  0.42432953  0.12045098  0.91168431    -0.00900
C520        C  0.43436293  0.15471551  0.92393690     0.01700
C521        C  0.42806783  0.18472718  0.90202042    -0.21200
C522        C  0.42114916  0.16845974  0.87265170    -0.21400
C523        C  0.42270088  0.12887856  0.87798685     0.01600
H524        H  0.93246862  0.21451377  0.90595505     0.15400
H525        H  0.42052715  0.18432095  0.84922110     0.15400
N526        N  0.35833735  0.11073803  0.92091620    -0.00900
C527        C  0.34668626  0.13814603  0.94287961     0.01700
C528        C  0.36575505  0.13266976  0.97130969    -0.21200
C529        C  0.39077498  0.10392088  0.96536826    -0.21400
C530        C  0.39240354  0.10114816  0.93053913     0.01600
H531        H  0.36808905  0.15311737  0.99039245     0.15400
H532        H  0.41377429  0.09906553  0.98053503     0.15400
N533        N  0.44027374  0.10466172  0.85244722    -0.00900
C534        C  0.45872799  0.11632506  0.82235943     0.01700
C535        C  0.47563102  0.08632241  0.80643398    -0.21200
C536        C  0.46535900  0.05436971  0.82609078    -0.21400
C537        C  0.44466625  0.06616616  0.85478441     0.01600
H538        H  0.48766577  0.08666645  0.78042921     0.15400
H539        H  0.46690184  0.02589415  0.81670926     0.15400
N540        N  0.33371522  0.08307965  0.85313628    -0.00900
C541        C  0.32409902  0.09777002  0.82295964     0.01700
C542        C  0.35181085  0.09159141  0.79770131    -0.21200
C543        C  0.37750710  0.06925393  0.81184937    -0.21400
C544        C  0.36542545  0.06446226  0.84564381     0.01600
H545        H  0.35083299  0.09821676  0.77091449     0.15400
H546        H  0.40060412  0.05565927  0.79833806     0.15400
N547        N  0.11527017  0.17029135  0.89787456    -0.00900
C548        C  0.09527385  0.18930083  0.92341667     0.01700
C549        C  0.11757012  0.21484237  0.93706967    -0.21200
C550        C  0.15224880  0.21021105  0.92256678    -0.21400
C551        C  0.15176051  0.17787798  0.90364182     0.01600
H552        H  0.11042070  0.23190463  0.95864475     0.15400
H553        H  0.17540925  0.22378704  0.93241373     0.15400
N554        N  0.07172450  0.09461597  0.88555459    -0.00900
C555        C  0.04896777  0.07141731  0.90689201     0.01700
C556        C  0.01467410  0.08812416  0.91124926    -0.21200
C557        C  0.01738196  0.12370843  0.89480749    -0.21400
C558        C  0.05317890  0.12758141  0.88229430     0.01600
H559        H  0.98896820  0.07339314  0.92034301     0.15400
H560        H  0.99595714  0.14364563  0.88963801     0.15400
N561        N  0.14574004  0.08385437  0.91412038    -0.00900
C562        C  0.13568108  0.05122495  0.93392257     0.01700
C563        C  0.13641202  0.01951707  0.91464377    -0.21200
C564        C  0.14912023  0.03167832  0.88307201    -0.21400
C565        C  0.15086926  0.07128101  0.88260719     0.01600
H566        H  0.13112212  0.98984592  0.92312203     0.15400
H567        H  0.14886219  0.01478036  0.86138262     0.15400
N568        N  0.17830407  0.14814832  0.91349413    -0.00900
C569        C  0.21287809  0.15477927  0.92423041     0.01700
C570        C  0.23002603  0.12232987  0.93492534    -0.21200
C571        C  0.20631291  0.09378609  0.93148019    -0.21400
C572        C  0.17410656  0.10948050  0.92195048     0.01600
H573        H  0.25754312  0.11994985  0.94342719     0.15400
H574        H  0.21170857  0.06371368  0.93408730     0.15400
N575        N  0.13460583  0.09091490  0.85589668    -0.00900
C576        C  0.14776541  0.08392540  0.82385029     0.01700
C577        C  0.12095401  0.06560431  0.80775320    -0.21200
C578        C  0.08844891  0.06755882  0.82822112    -0.21400
C579        C  0.09779591  0.08326130  0.85771398     0.01600
H580        H  0.12432010  0.05338084  0.78326055     0.15400
H581        H  0.06115905  0.05977475  0.82163259     0.15400
N582        N  0.10179777  0.17264498  0.86414995    -0.00900
C583        C  0.12109592  0.17173853  0.83204845     0.01700
C584        C  0.09795041  0.15398112  0.81115278    -0.21200
C585        C  0.06321142  0.15201223  0.82681958    -0.21400
C586        C  0.06753711  0.15853590  0.85987155     0.01600
H587        H  0.10349760  0.14929000  0.78454846     0.15400
H588        H  0.04011158  0.13759201  0.81712743     0.15400
N589        N  0.19586667  0.41602802  0.91170247    -0.00900
C590        C  0.21156682  0.44244536  0.92992504     0.01700
C591        C  0.24570029  0.45408528  0.91505502    -0.21200
C592        C  0.24906561  0.43949352  0.88418947    -0.21400
C593        C  0.21651830  0.41961096  0.88094531     0.01600
H594        H  0.26594137  0.47196481  0.92483797     0.15400
H595        H  0.26983734  0.44942370  0.86438063     0.15400
N596        N  0.13798262  0.40522350  0.85898261    -0.00900
C597        C  0.10537238  0.40396286  0.87705522     0.01700
C598        C  0.08527402  0.37231215  0.86939383    -0.21200
C599        C  0.10657937  0.35396745  0.84543235    -0.21400
C600        C  0.13937462  0.37455412  0.84064323     0.01600
H601        H  0.05753076  0.36406367  0.87932849     0.15400
H602        H  0.09921532  0.32754007  0.83475993     0.15400
N603        N  0.16458567  0.32703042  0.89768034    -0.00900
C604        C  0.13079902  0.31498133  0.91337400     0.01700
C605        C  0.11755681  0.28583803  0.89563620    -0.21200
C606        C  0.14372742  0.27890431  0.86957926    -0.21400
C607        C  0.17109501  0.30658272  0.86948493     0.01600
H608        H  0.09057326  0.27216506  0.90015446     0.15400
H609        H  0.14021198  0.25907620  0.85041360     0.15400
N610        N  0.19331914  0.34519238  0.91308687    -0.00900
C611        C  0.21065510  0.32357645  0.93656695     0.01700
C612        C  0.20408203  0.33811202  0.96798906    -0.21200
C613        C  0.18721998  0.37214357  0.96326478    -0.21400
C614        C  0.18526378  0.37860903  0.92839760     0.01600
H615        H  0.21441173  0.32755436  0.99143513     0.15400
H616        H  0.18433021  0.39175045  0.98320935     0.15400
N617        N  0.18635896  0.32553129  0.83789970    -0.00900
C618        C  0.19942452  0.31041280  0.80867750     0.01700
C619        C  0.21016628  0.33981230  0.78531152    -0.21200
C620        C  0.19037097  0.37090227  0.79542793    -0.21400
C621        C  0.17450987  0.35994265  0.82708689     0.01600
H622        H  0.21659453  0.33514702  0.75882268     0.15400
H623        H  0.18232593  0.39455275  0.77902890     0.15400
N624        N  0.19899311  0.42969264  0.85068446    -0.00900
C625        C  0.21524506  0.44726233  0.82209803     0.01700
C626        C  0.18961973  0.46839647  0.80544864    -0.21200
C627        C  0.15609779  0.46066974  0.82294991    -0.21400
C628        C  0.16254204  0.43648031  0.85056222     0.01600
H629        H  0.19379713  0.48275382  0.78053752     0.15400
H630        H  0.12966303  0.46657195  0.81320689     0.22600
N631        N  0.44483127  0.38020932  0.85180959    -0.00900
C632        C  0.48118770  0.37803720  0.85639850     0.01700
C633        C  0.49907554  0.35408765  0.83383296    -0.21200
C634        C  0.47215219  0.33880778  0.81657510    -0.21400
C635        C  0.43895028  0.35341389  0.83005215     0.01600
H636        H  0.02843335  0.34889765  0.82968431     0.15400
H637        H  0.47578001  0.31519102  0.80003301     0.15400
N638        N  0.37363791  0.37842279  0.90756205    -0.00900
C639        C  0.34321690  0.39005504  0.92814026     0.01700
C640        C  0.31240127  0.38880078  0.91055513    -0.21200
C641        C  0.32489039  0.38967746  0.87697384    -0.21400
C642        C  0.36306638  0.38841968  0.87553678     0.01600
H643        H  0.28440324  0.39294153  0.92099141     0.15400
H644        H  0.30806498  0.39655124  0.85654425     0.15400
N645        N  0.45043911  0.31080885  0.90498700    -0.00900
C646        C  0.48384893  0.29856251  0.91651703     0.01700
C647        C  0.49812364  0.26931835  0.89730920    -0.21200
C648        C  0.47435070  0.26311829  0.87299260    -0.21400
C649        C  0.44494399  0.28767815  0.87832961     0.01600
H650        H  0.02414693  0.25489102  0.89984733     0.15400
H651        H  0.47851693  0.24297827  0.85330656     0.15400
N652        N  0.41646811  0.29281470  0.85454766    -0.00900
C653        C  0.39557352  0.26733444  0.83929182     0.01700
C654        C  0.36628851  0.28741024  0.82654680    -0.21200
C655        C  0.37782954  0.32475087  0.82269775    -0.21400
C656        C  0.40907935  0.32666523  0.83939963     0.01600
H657        H  0.34627470  0.27600753  0.81083276     0.15400
H658        H  0.36956354  0.34492359  0.80360684     0.15400
N659        N  0.38715794  0.33960651  0.91376069    -0.00900
C660        C  0.36769635  0.31678654  0.93884670     0.01700
C661        C  0.38569661  0.31597515  0.96760349    -0.21200
C662        C  0.42048795  0.33001455  0.95828540    -0.21400
C663        C  0.42287234  0.33534333  0.92315911     0.01600
H664        H  0.37682483  0.30000523  0.99065765     0.15400
H665        H  0.44293629  0.32474488  0.97395305     0.15400
N666        N  0.38614504  0.41301256  0.85038706    -0.00900
C667        C  0.37634870  0.44102848  0.82661291     0.01700
C668        C  0.40710933  0.46285444  0.81502640    -0.21200
C669        C  0.43674107  0.44556275  0.82830767    -0.21400
C670        C  0.42354701  0.41476121  0.84961599     0.01600
H671        H  0.40923446  0.48340609  0.79351787     0.15400
H672        H  0.46495876  0.45046416  0.81778204     0.15400
N673        N  0.11557553  0.38709183  0.58302876    -0.00900
C674        C  0.09667556  0.40055334  0.55698145     0.01700
C675        C  0.07624295  0.43145233  0.56819104    -0.21200
C676        C  0.07909814  0.43237602  0.60286985    -0.21400
C677        C  0.10337824  0.40389898  0.61224493     0.01600
H678        H  0.05535721  0.44618514  0.55469969     0.15400
H679        H  0.05910391  0.44641948  0.61947517     0.15400
N680        N  0.13263290  0.40843630  0.68797684    -0.00900
C681        C  0.11598891  0.44173878  0.69967480     0.01700
C682        C  0.14074249  0.46146560  0.71711162    -0.21200
C683        C  0.17325787  0.44183823  0.71567626    -0.21400
C684        C  0.16810433  0.41012807  0.69733156     0.01600
H685        H  0.13583380  0.48834737  0.72913016     0.15400
H686        H  0.19801172  0.45114063  0.72599399     0.15400
N687        N  0.19619725  0.38927558  0.59413407    -0.00900
C688        C  0.21031655  0.42182022  0.57628736     0.01700
C689        C  0.22986420  0.44388270  0.59674502    -0.21200
C690        C  0.22526413  0.42737300  0.62820675    -0.21400
C691        C  0.20470411  0.39427271  0.62632645     0.01600
H692        H  0.24246257  0.47192267  0.59064239     0.15400
H693        H  0.23662462  0.43817692  0.65022908     0.15400
N694        N  0.17657583  0.35734210  0.58277983    -0.00900
C695        C  0.18614286  0.31946961  0.58424081     0.01700
C696        C  0.15605280  0.29554453  0.58259742    -0.21200
C697        C  0.12638047  0.31815517  0.58044017    -0.21400
C698        C  0.13938890  0.35525726  0.58124731     0.01600
H699        H  0.15589742  0.26456060  0.58215491     0.15400
H700        H  0.09822908  0.30804584  0.57988763     0.15400
N701        N  0.19749981  0.38470477  0.68638534    -0.00900
C702        C  0.22874195  0.37487010  0.70113023     0.01700
C703        C  0.24391645  0.34340345  0.68588433    -0.21200
C704        C  0.22688580  0.34000110  0.65697611    -0.21400
C705        C  0.20016616  0.36791126  0.65620378     0.01600
H706        H  0.26984851  0.32997540  0.69094445     0.15400
H707        H  0.24246067  0.32984682  0.63519254     0.15400
N708        N  0.11695966  0.37658024  0.67239730    -0.00900
C709        C  0.11747056  0.33714724  0.68186245     0.01700
C710        C  0.09435297  0.31820708  0.66269311    -0.21200
C711        C  0.07982787  0.34435097  0.64126901    -0.21400
C712        C  0.09620231  0.37943305  0.64486580     0.01600
H713        H  0.08891888  0.28775305  0.66389707     0.15400
H714        H  0.06419611  0.33683550  0.62074152     0.15400
N715        N  0.37140113  0.36482617  0.59802575    -0.00900
C716        C  0.34334940  0.38434040  0.58416552     0.01700
C717        C  0.31307231  0.38475431  0.60747840    -0.21200
C718        C  0.32383849  0.37044414  0.63768961    -0.21400
C719        C  0.36141794  0.36302181  0.63299561     0.01600
H720        H  0.28738386  0.39875652  0.60391554     0.15400
H721        H  0.30851967  0.37484679  0.66164541     0.15400
N722        N  0.44813499  0.37516944  0.67473365    -0.00900
C723        C  0.47424560  0.39458092  0.69085771     0.01700
C724        C  0.49185129  0.36896070  0.71170474    -0.21200
C725        C  0.47705096  0.33328487  0.70876908    -0.21400
C726        C  0.44967979  0.33782442  0.68687475     0.01600
H727        H  0.01435531  0.37547245  0.72678506     0.15400
H728        H  0.98806848  0.30709940  0.71916508     0.15400
N729        N  0.44996738  0.34097579  0.57962573    -0.00900
C730        C  0.47865809  0.36197747  0.56354634     0.01700
C731        C  0.50304367  0.36828504  0.58761581    -0.21200
C732        C  0.49069912  0.34812502  0.61711505    -0.21400
C733        C  0.45792433  0.33095256  0.61153493     0.01600
H734        H  0.03060338  0.37843137  0.58259875     0.15400
H735        H  0.50547406  0.34413119  0.63936619     0.15400
N736        N  0.38346438  0.33132596  0.58089622    -0.00900
C737        C  0.36341475  0.30105458  0.56997298     0.01700
C738        C  0.38664953  0.27894151  0.54960283    -0.21200
C739        C  0.42082039  0.29588792  0.54614255    -0.21400
C740        C  0.41823486  0.32735452  0.56556375     0.01600
H741        H  0.37929525  0.25274459  0.53817906     0.15400
H742        H  0.44573892  0.28396177  0.53400995     0.15400
N743        N  0.43370154  0.30643803  0.67072354    -0.00900
C744        C  0.41295050  0.27560661  0.68470245     0.01700
C745        C  0.40125308  0.25476771  0.65892394    -0.21200
C746        C  0.41668890  0.27173703  0.62896039    -0.21400
C747        C  0.43567088  0.30415223  0.63659993     0.01600
H748        H  0.38793174  0.22674944  0.66165079     0.15400
H749        H  0.41705435  0.25887002  0.60496604     0.15400
N750        N  0.38486408  0.37641365  0.65959199    -0.00900
C751        C  0.37257698  0.40765168  0.67662636     0.01700
C752        C  0.39102116  0.44056949  0.66301445    -0.21200
C753        C  0.42101135  0.42786686  0.64400938    -0.21400
C754        C  0.42072306  0.38889130  0.65201896     0.01600
H755        H  0.38694842  0.46975036  0.67049811     0.15400
H756        H  0.44447117  0.44556987  0.63449819     0.15400
N757        N  0.39318104  0.13327977  0.57673075    -0.00900
C758        C  0.41800606  0.11512981  0.55422008     0.01700
C759        C  0.42331545  0.07772513  0.56652575    -0.21200
C760        C  0.41509037  0.07809556  0.60052485    -0.21400
C761        C  0.40229495  0.11450060  0.60634948     0.01600
H762        H  0.44172463  0.05683279  0.55502369     0.15400
H763        H  0.42628107  0.05814595  0.61870700     0.15400
N764        N  0.40708830  0.08878900  0.68295333    -0.00900
C765        C  0.42147388  0.05759634  0.69974685     0.01700
C766        C  0.39373089  0.03812957  0.72015402    -0.21200
C767        C  0.36135129  0.05643454  0.71583101    -0.21400
C768        C  0.37005562  0.08709333  0.69324113     0.01600
H769        H  0.39647280  0.51177426  0.73534390     0.15400
H770        H  0.33428209  0.04692270  0.72679391     0.15400
N771        N  0.33648451  0.06542717  0.59492097    -0.00900
C772        C  0.33223027  0.02737242  0.58961545     0.01700
C773        C  0.32558704  0.00687799  0.62027422    -0.21200
C774        C  0.32563809  0.03293948  0.64517579    -0.21400
C775        C  0.33230658  0.06889573  0.62919352     0.01600
H776        H  0.32044346  0.47628355  0.62413067     0.15400
H777        H  0.31915127  0.02628066  0.67191453     0.15400
N778        N  0.35377213  0.13143796  0.57149396    -0.00900
C779        C  0.33447544  0.15516695  0.54971172     0.01700
C780        C  0.31234207  0.13250506  0.53163024    -0.21200
C781        C  0.31357226  0.09591488  0.54425599    -0.21400
C782        C  0.33719574  0.09621119  0.56929266     0.01600
H783        H  0.29154825  0.14241817  0.51525698     0.15400
H784        H  0.29518859  0.07290026  0.53889942     0.15400
N785        N  0.34237404  0.10987529  0.67864217    -0.00900
C786        C  0.32397300  0.13951286  0.69328008     0.01700
C787        C  0.30825346  0.15978237  0.66745978    -0.21200
C788        C  0.30916131  0.13643892  0.64006164    -0.21400
C789        C  0.33059431  0.10555121  0.64763127     0.01600
H790        H  0.29137877  0.18494054  0.67080606     0.15400
H791        H  0.29171256  0.13845005  0.61946613     0.15400
N792        N  0.42624729  0.12044940  0.66442588    -0.00900
C793        C  0.44966135  0.14637425  0.67674225     0.01700
C794        C  0.46221972  0.17288692  0.65099062    -0.21200
C795        C  0.44379601  0.16571978  0.62331400    -0.21400
C796        C  0.42133181  0.13407811  0.63211956     0.01600
H797        H  0.47854635  0.19852082  0.65348743     0.15400
H798        H  0.44637877  0.18216825  0.59931009     0.15400
N799        N  0.10391015  0.16345696  0.58386908    -0.00900
C800        C  0.08080351  0.14127322  0.56566997     0.01700
C801        C  0.06167330  0.11304776  0.58598364    -0.21200
C802        C  0.06452072  0.12224687  0.61779206    -0.21400
C803        C  0.08805246  0.15332677  0.61624713     0.01600
H804        H  0.04025952  0.09399248  0.57882024     0.15400
H805        H  0.04552744  0.11249630  0.63902932     0.15400
N806        N  0.14554079  0.08978469  0.59555807    -0.00900
C807        C  0.13368913  0.05342244  0.59064288     0.01700
C808        C  0.12382934  0.03398722  0.62130659    -0.21200
C809        C  0.13079751  0.05832926  0.64604354    -0.21400
C810        C  0.14423052  0.09210772  0.62955125     0.01600
H811        H  0.11771803  0.00363107  0.62518266     0.15400
H812        H  0.12994243  0.05060948  0.67287070     0.15400
N813        N  0.09025447  0.12661795  0.68854159    -0.00900
C814        C  0.06747918  0.10463549  0.71160295     0.01700
C815        C  0.08421924  0.10161376  0.74147109    -0.21200
C816        C  0.12103753  0.10954928  0.73341509    -0.21400
C817        C  0.12371881  0.12202568  0.70020632     0.01600
H818        H  0.07274502  0.08653547  0.76442881     0.15400
H819        H  0.14324947  0.10472091  0.74927995     0.15400
N820        N  0.15746722  0.12885756  0.67937450    -0.00900
C821        C  0.18838929  0.14515868  0.68853046     0.01700
C822        C  0.21208062  0.15309892  0.65998883    -0.21200
C823        C  0.19715506  0.13724077  0.63347845    -0.21400
C824        C  0.16332334  0.12221222  0.64622170     0.01600
H825        H  0.23964574  0.16377002  0.65919696     0.15400
H826        H  0.21177555  0.13275380  0.60907116     0.15400
N827        N  0.08184599  0.16531771  0.67786134    -0.00900
C828        C  0.06787076  0.19446826  0.69745370     0.01700
C829        C  0.05211685  0.22093850  0.67586707    -0.21200
C830        C  0.06236357  0.21173211  0.64297793    -0.21400
C831        C  0.08195728  0.17815763  0.64488080     0.01600
H832        H  0.03929398  0.24761868  0.68296786     0.15400
H833        H  0.05505239  0.22720644  0.62020282     0.15400
N834        N  0.14422763  0.15908882  0.57856611    -0.00900
C835        C  0.16828633  0.18154515  0.55549670     0.01700
C836        C  0.17800947  0.15916556  0.52832145    -0.21200
C837        C  0.17229005  0.12173341  0.53949602    -0.21400
C838        C  0.15468281  0.12249162  0.57169132     0.01600
H839        H  0.19672145  0.16742974  0.50631451     0.15400
H840        H  0.18347034  0.09830717  0.52579157     0.15400
O841        O  0.23144043  0.27967115  0.60377089    -0.71800
O842        O  0.29850467  0.19654061  0.58797153    -0.71900
O843        O  0.30744571  0.27183825  0.59982070    -0.71900
O844        O  0.21849251  0.20584481  0.59129576    -0.72000
O845        O  0.22272961  0.22280828  0.53665145    -0.71900
O846        O  0.30918127  0.28725810  0.54460880    -0.71900
O847        O  0.30101957  0.21198885  0.53301238    -0.71900
O848        O  0.23548949  0.29725942  0.54884982    -0.71900
Ni849      Ni  0.26390329  0.23784227  0.59768431     1.25400
Ni850      Ni  0.26726720  0.25509625  0.53892357     1.25400
C851        C  0.22181636  0.30131632  0.57919753     0.90300
C852        C  0.31225735  0.19093967  0.55779709     0.90300
C853        C  0.32334954  0.28946733  0.57289913     0.90300
C854        C  0.20418501  0.20520415  0.56240622     0.90500
O855        O  0.13918699  0.29464670  0.79549169    -0.71800
O856        O  0.07386394  0.23708882  0.74435135    -0.71900
O857        O  0.10395337  0.23045874  0.80682483    -0.71900
O858        O  0.10528734  0.31092207  0.73811802    -0.72000
O859        O  0.15294211  0.28516713  0.70875395    -0.71900
O860        O  0.15358899  0.20295183  0.78158349    -0.71900
O861        O  0.12409357  0.21042985  0.71960497    -0.71900
O862        O  0.18768880  0.26829376  0.76746805    -0.71900
Ni863      Ni  0.10367748  0.26918519  0.77192454     1.25400
Ni864      Ni  0.15628441  0.24086611  0.74303678     1.25400
C865        C  0.17408693  0.28787643  0.79127114     0.90300
C866        C  0.08905157  0.21331259  0.72320187     0.90300
C867        C  0.12908168  0.20514374  0.80737826     0.90300
C868        C  0.12855097  0.31251813  0.71209110     0.90500
O869        O  0.21467242  0.09869032  0.72417553    -0.71800
O870        O  0.27495119  0.07380186  0.79620116    -0.71900
O871        O  0.20132786  0.07063737  0.78892596    -0.71900
O872        O  0.28728194  0.09725634  0.73057933    -0.72000
O873        O  0.28357468  0.15875414  0.74256123    -0.71900
O874        O  0.19780670  0.13000627  0.80702690    -0.71900
O875        O  0.27356015  0.13509179  0.80989072    -0.71900
O876        O  0.20966066  0.15868074  0.74102460    -0.71900
Ni877      Ni  0.24452255  0.08296082  0.75980537     1.25400
Ni878      Ni  0.24084226  0.14780989  0.77620314     1.25400
C879        C  0.20410955  0.13354980  0.71991858     0.90300
C880        C  0.28713430  0.10162857  0.81214898     0.90300
C881        C  0.18470167  0.09539896  0.80691195     0.90300
C882        C  0.29850938  0.13185370  0.72486779     0.90500
O883        O  0.47059502  0.18255545  0.72159175    -0.71800
O884        O  0.44509793  0.24374210  0.79969873    -0.71900
O885        O  0.47294725  0.17284788  0.78972569    -0.71900
O886        O  0.44721279  0.25495824  0.73027440    -0.72000
O887        O  0.39019218  0.23104658  0.73024211    -0.71900
O888        O  0.41457187  0.15071465  0.79405330    -0.71900
O889        O  0.38762444  0.22070385  0.79992748    -0.71900
O890        O  0.41323681  0.15801834  0.72679762    -0.71900
Ni891      Ni  0.46114563  0.21440014  0.76040387     1.25400
Ni892      Ni  0.39933172  0.18957370  0.76305419     1.25400
C893        C  0.44527040  0.16098945  0.71104199     0.90300
C894        C  0.41116597  0.24172212  0.81270368     0.90300
C895        C  0.44817257  0.14858859  0.80150732     0.90300
C896        C  0.41598972  0.25485240  0.71799195     0.90500
O897        O  0.34068614  0.38066114  0.73144906    -0.71800
O898        O  0.26381744  0.40215417  0.80479494    -0.71900
O899        O  0.26784586  0.37324645  0.74304245    -0.71900
O900        O  0.33819605  0.40146532  0.79925879    -0.72000
O901        O  0.33724690  0.46253755  0.78111053    -0.71900
O902        O  0.26107539  0.43217804  0.72108006    -0.71900
O903        O  0.26337990  0.46218511  0.78272259    -0.71900
O904        O  0.33561252  0.44192536  0.71441370    -0.71900
Ni905      Ni  0.30310128  0.38731438  0.77053684     1.25400
Ni906      Ni  0.29954744  0.45198502  0.74907827     1.25400
C907        C  0.34828691  0.40889499  0.70913149     0.90300
C908        C  0.25010243  0.43638685  0.80372262     0.90300
C909        C  0.25195074  0.39594610  0.72351275     0.90300
C910        C  0.34830322  0.43560944  0.80179218     0.90500
O911        O  0.32263981  0.19312954  0.90674229    -0.71800
O912        O  0.25476714  0.28275174  0.90313768    -0.71900
O913        O  0.33067567  0.27601001  0.90636112    -0.71900
O914        O  0.24995622  0.20551058  0.89931305    -0.72000
O915        O  0.24164448  0.19899697  0.95578255    -0.71900
O916        O  0.32015465  0.27199875  0.96249382    -0.71900
O917        O  0.24614343  0.27476682  0.95924407    -0.71900
O918        O  0.31379060  0.19249991  0.96276841    -0.71900
Ni919      Ni  0.29039024  0.23976072  0.90170628     1.25400
Ni920      Ni  0.28035785  0.23461859  0.96184857     1.25400
C921        C  0.32662167  0.17615280  0.93625413     0.90300
C922        C  0.23799848  0.29181397  0.93174930     0.90300
C923        C  0.33767648  0.28740162  0.93535765     0.90300
C924        C  0.23372462  0.18989070  0.92633124     0.90500
O925        O  0.06900654  0.47589687  0.66954160    -0.71800
O926        O  0.47708877  0.03446449  0.66844158    -0.71900
O927        O  0.04849594  0.05428766  0.67426673    -0.71900
O928        O  0.49685453  0.45658161  0.66422840    -0.72000
O929        O  0.48706091  0.44946005  0.72030345    -0.71900
O930        O  0.03954127  0.04331941  0.72991327    -0.71900
O931        O  0.46952796  0.02504311  0.72456244    -0.71900
O932        O  0.05889244  0.46605033  0.72516332    -0.71900
Ni933      Ni  0.02324740  0.50561131  0.66695316     1.25400
Ni934      Ni  0.01358973  0.49570566  0.72672006     1.25400
C935        C  0.07832891  0.45968542  0.69734930     0.90300
C936        C  0.45875669  0.04002730  0.69697221     0.90300
C937        C  0.05052474  0.06599017  0.70432421     0.90300
C938        C  0.48452722  0.43636296  0.69107947     0.90500
O939        O  0.48262291  0.99391666  0.86560484    -0.71800
O940        O  0.07979951  0.46015050  0.86244180    -0.71900
O941        O  0.51723945  0.43074785  0.84904568    -0.71900
O942        O  0.04675586  0.02307431  0.87416084    -0.72000
O943        O  0.04049477  0.00662939  0.92936817    -0.71900
O944        O  0.49833612  0.41273225  0.90273561    -0.71900
O945        O  0.06690245  0.43526982  0.91534890    -0.71900
O946        O  0.47288370  0.98030565  0.92109307    -0.71900
Ni947      Ni  0.03200572  0.47779253  0.86106997     1.25400
Ni948      Ni  0.01981506  0.45779029  0.91975518     1.25400
C949        C  0.46217410  0.99380173  0.89341466     0.90300
C950        C  0.08608173  0.43693748  0.88684310     0.90300
C951        C  0.50041596  0.40784896  0.87072376     0.90300
C952        C  0.04789461  0.03112557  0.90428630     0.90500
O953        O  0.21243351  0.48760714  0.97059796    -0.71800
O954        O  0.17737887  0.03758169  0.54769400    -0.71900
O955        O  0.21524210  0.47331506  0.53586286    -0.71900
O956        O  0.17135381  0.05009563  0.98128572    -0.72000
O957        O  0.11995178  0.01478328  0.98383178    -0.71900
O958        O  0.16287225  0.43915684  0.54067384    -0.71900
O959        O  0.12379331  0.00551252  0.55120600    -0.71900
O960        O  0.16097373  0.45200270  0.97266749    -0.71900
Ni961      Ni  0.19575756  0.51345916  0.50885534     1.25400
Ni962      Ni  0.13981007  0.47648804  0.01243625     1.25400
C963        C  0.19373955  0.46110549  0.95926288     0.90300
C964        C  0.14474988  0.03174626  0.56118118     0.90300
C965        C  0.19593250  0.44398732  0.54805184     0.90300
C966        C  0.14071126  0.04177586  0.96970565     0.90500
O967        O  0.05320675  0.14065990  0.95163634    -0.71800
O968        O  0.47682157  0.10884475  0.52174414    -0.71900
O969        O  0.47715503  0.12640093  0.95780230    -0.71900
O970        O  0.05306113  0.12310180  0.51771725    -0.72000
O971        O  0.03945512  0.18207164  0.53299866    -0.71900
O972        O  0.46835033  0.18848910  0.96374445    -0.71900
O973        O  0.46076087  0.16886813  0.53083321    -0.71900
O974        O  0.04338394  0.20112827  0.96412347    -0.71900
Ni975      Ni  0.01555515  0.12293639  0.98691980     1.25400
Ni976      Ni  0.00283538  0.18762240  0.99862620     1.25400
C977        C  0.06136625  0.17627013  0.94625728     0.90300
C978        C  0.45327071  0.13258537  0.53479317     0.90300
C979        C  0.46052652  0.15709572  0.95031483     0.90300
C980        C  0.05902166  0.15135630  0.53588877     0.90500
O981        O  0.30407351  0.99233010  0.54808782    -0.71800
O982        O  0.31072546  0.42605673  0.97225552    -0.71900
O983        O  0.31269202  0.41686002  0.54083982    -0.71900
O984        O  0.29977279  0.00402323  0.98007723    -0.72000
O985        O  0.36015432  0.01365240  0.96888650    -0.71900
O986        O  0.37350190  0.42737004  0.53738468    -0.71900
O987        O  0.37193436  0.43248312  0.96684731    -0.71900
O988        O  0.36447441  0.00526513  0.53867546    -0.71900
Ni989      Ni  0.30492923  0.45958752  0.51018576     1.25400
Ni990      Ni  0.36985278  0.47002905  0.50234006     1.25400
C991        C  0.33349915  0.00860908  0.55656973     0.90300
C992        C  0.34244107  0.41684844  0.95759829     0.90300
C993        C  0.34423157  0.40941909  0.55160705     0.90300
C994        C  0.32651056  0.02392112  0.96423876     0.90500
O995        O  0.50483796  0.38158162  0.50643958    -0.71800
O996        O  0.08856838  0.36216900  0.93960716    -0.71900
O997        O  0.51187950  0.35144449  0.94256332    -0.71900
O998        O  0.07720710  0.39769249  0.50095633    -0.72000
O999        O  0.08250816  0.34151422  0.52878649    -0.71900
O1000       O  0.02302857  0.29309706  0.96400426    -0.71900
O1001       O  0.09738550  0.30675700  0.96737082    -0.71900
O1002       O  0.01095929  0.32156382  0.52696939    -0.71900
Ni1003     Ni  0.04543200  0.37515957  0.97106836     1.25400
Ni1004     Ni  0.05397100  0.31372861  0.99749709     1.25400
C1005       C  0.49647002  0.35450648  0.52939390     0.90300
C1006       C  0.10643988  0.33032176  0.94237520     0.90300
C1007       C  0.50654230  0.31519725  0.94288787     0.90300
C1008       C  0.08681412  0.37847123  0.52691998     0.90500
N1009       N  0.33410180  0.57996412  0.41467223    -0.00900
C1010       C  0.31443577  0.55524373  0.43837063     0.01700
C1011       C  0.28103934  0.54789899  0.42559278    -0.21200
C1012       C  0.28147780  0.56343854  0.39314489    -0.21400
C1013       C  0.31478440  0.58215400  0.38660013     0.01600
H1014       H  0.25974004  0.52916155  0.43753693     0.15400
H1015       H  0.26185788  0.55712111  0.37511070     0.15400
N1016       N  0.41854751  0.54090830  0.37416010    -0.00900
C1017       C  0.42567863  0.50898023  0.39257762     0.01700
C1018       C  0.39405469  0.48710601  0.40045148    -0.21200
C1019       C  0.36615043  0.50625511  0.38567138    -0.21400
C1020       C  0.38258791  0.53883014  0.36943316     0.01600
H1021       H  0.39285448  0.95800365  0.41084619     0.15400
H1022       H  0.33821286  0.49575595  0.38406084     0.15400
N1023       N  0.42433055  0.62045419  0.41168226    -0.00900
C1024       C  0.43436405  0.65471869  0.42393435     0.01700
C1025       C  0.42806875  0.68473040  0.40201793    -0.21200
C1026       C  0.42114953  0.66846262  0.37264940    -0.21400
C1027       C  0.42270174  0.62888140  0.37798470     0.01600
H1028       H  0.93247317  0.71451784  0.40595260     0.15400
H1029       H  0.42052668  0.68432367  0.34921877     0.15400
N1030       N  0.35833866  0.61074063  0.42091613    -0.00900
C1031       C  0.34668775  0.63814855  0.44287956     0.01700
C1032       C  0.36575743  0.63267278  0.47130911    -0.21200
C1033       C  0.39077771  0.60392409  0.46536724    -0.21400
C1034       C  0.39240516  0.60115110  0.43053801     0.01600
H1035       H  0.36809149  0.65312029  0.49039197     0.15400
H1036       H  0.41377699  0.59906896  0.48053328     0.15400
N1037       N  0.44027605  0.60466489  0.35244552    -0.00900
C1038       C  0.45873059  0.61632794  0.32235791     0.01700
C1039       C  0.47563462  0.58632540  0.30643261    -0.21200
C1040       C  0.46536266  0.55437269  0.32609004    -0.21400
C1041       C  0.44466934  0.56616935  0.35478331     0.01600
H1042       H  0.48766956  0.58666931  0.28042883     0.15400
H1043       H  0.46690601  0.52589723  0.31670868     0.15400
N1044       N  0.33371683  0.58308227  0.35313634    -0.00900
C1045       C  0.32410046  0.59777093  0.32295898     0.01700
C1046       C  0.35181246  0.59159182  0.29770120    -0.21200
C1047       C  0.37750964  0.56925633  0.31184971    -0.21400
C1048       C  0.36542799  0.56446625  0.34564443     0.01600
H1049       H  0.35083429  0.59821552  0.27091345     0.15400
H1050       H  0.40060659  0.55566169  0.29833902     0.15400
N1051       N  0.11527200  0.67029080  0.39787290    -0.00900
C1052       C  0.09527561  0.68930062  0.42341481     0.01700
C1053       C  0.11757163  0.71484292  0.43706697    -0.21200
C1054       C  0.15225041  0.71021194  0.42256417    -0.21400
C1055       C  0.15176203  0.67787775  0.40364029     0.01600
H1056       H  0.11042198  0.73190595  0.45864175     0.15400
H1057       H  0.17541022  0.72378877  0.43241050     0.15400
N1058       N  0.07172652  0.59461471  0.38555293    -0.00900
C1059       C  0.04896918  0.57141625  0.40688979     0.01700
C1060       C  0.01467585  0.58812368  0.41124736    -0.21200
C1061       C  0.01738430  0.62370822  0.39480556    -0.21400
C1062       C  0.05318142  0.62758043  0.38229232     0.01600
H1063       H  0.98897007  0.57339312  0.42034097     0.15400
H1064       H  0.99595999  0.64364555  0.38963644     0.15400
N1065       N  0.14574162  0.58385348  0.41412119    -0.00900
C1066       C  0.13568128  0.55122465  0.43392399     0.01700
C1067       C  0.13640996  0.51951660  0.41464550    -0.21200
C1068       C  0.14911957  0.53167664  0.38307392    -0.21400
C1069       C  0.15087092  0.57127924  0.38260822     0.01600
H1070       H  0.13111835  0.48984568  0.42312402     0.15400
H1071       H  0.14886068  0.51477837  0.36138481     0.15400
N1072       N  0.17830518  0.64814830  0.41349378    -0.00900
C1073       C  0.21287894  0.65478013  0.42423010     0.01700
C1074       C  0.23002647  0.62233140  0.43492701    -0.21200
C1075       C  0.20631350  0.59378723  0.43148277    -0.21400
C1076       C  0.17410744  0.60948064  0.42195156     0.01600
H1077       H  0.25754337  0.61995213  0.44342965     0.15400
H1078       H  0.21170979  0.56371487  0.43409009     0.15400
N1079       N  0.13460875  0.59091318  0.35589679    -0.00900
C1080       C  0.14776896  0.58392317  0.32385056     0.01700
C1081       C  0.12095760  0.56560277  0.30775282    -0.21200
C1082       C  0.08845250  0.56755715  0.32822028    -0.21400
C1083       C  0.09779875  0.58325972  0.35771321     0.01600
H1084       H  0.12432365  0.55337999  0.28325965     0.15400
H1085       H  0.06116251  0.55977362  0.32163117     0.15400
N1086       N  0.10180000  0.67264462  0.36414823    -0.00900
C1087       C  0.12109917  0.67173889  0.33204708     0.01700
C1088       C  0.09795566  0.65397951  0.31115096    -0.21200
C1089       C  0.06321594  0.65200925  0.32681681    -0.21400
C1090       C  0.06754010  0.65853434  0.35986894     0.01600
H1091       H  0.10350445  0.64928764  0.28454745     0.15400
H1092       H  0.04011756  0.63758823  0.31712417     0.15400
N1093       N  0.19586680  0.91603012  0.41170376    -0.00900
C1094       C  0.21156816  0.94244522  0.42992788     0.01700
C1095       C  0.24570256  0.95408394  0.41505875    -0.21200
C1096       C  0.24906688  0.93949480  0.38419188    -0.21400
C1097       C  0.21651926  0.91961325  0.38094700     0.01600
H1098       H  0.26594431  0.97196115  0.42484265     0.15400
H1099       H  0.26983935  0.94942421  0.36438358     0.15400
N1100       N  0.13798430  0.90522589  0.35898080    -0.00900
C1101       C  0.10537441  0.90396571  0.37705401     0.01700
C1102       C  0.08527576  0.87231535  0.36939271    -0.21200
C1103       C  0.10658022  0.85396998  0.34543092    -0.21400
C1104       C  0.13937573  0.87455652  0.34064141     0.01600
H1105       H  0.05753240  0.86406683  0.37932810     0.15400
H1106       H  0.09921576  0.82754323  0.33475882     0.15400
N1107       N  0.16458595  0.82703217  0.39767876    -0.00900
C1108       C  0.13079966  0.81498206  0.41337242     0.01700
C1109       C  0.11755761  0.78583891  0.39563463    -0.21200
C1110       C  0.14372811  0.77890535  0.36957775    -0.21400
C1111       C  0.17109531  0.80658414  0.36948324     0.01600
H1112       H  0.09057395  0.77216561  0.40015309     0.15400
H1113       H  0.14021266  0.75907712  0.35041193     0.15400
N1114       N  0.19331871  0.84519456  0.41308546    -0.00900
C1115       C  0.21065474  0.82357867  0.43656570     0.01700
C1116       C  0.20407923  0.83811252  0.46798845    -0.21200
C1117       C  0.18721547  0.87214380  0.46326460    -0.21400
C1118       C  0.18526189  0.87861063  0.42839705     0.01600
H1119       H  0.21440749  0.82755438  0.49143442     0.15400
H1120       H  0.18432270  0.89174893  0.48320952     0.15400
N1121       N  0.18635909  0.82553251  0.33789809    -0.00900
C1122       C  0.19942421  0.81041359  0.30867597     0.01700
C1123       C  0.21016701  0.83981283  0.28531001    -0.21200
C1124       C  0.19037237  0.87090316  0.29542645    -0.21400
C1125       C  0.17451074  0.85994416  0.32708515     0.01600
H1126       H  0.21659500  0.83514737  0.25882129     0.15400
H1127       H  0.18232764  0.89455418  0.27902707     0.15400
N1128       N  0.19899539  0.92969302  0.35068490    -0.00900
C1129       C  0.21524854  0.94726064  0.32209819     0.01700
C1130       C  0.18962446  0.96839522  0.30544709    -0.21200
C1131       C  0.15610194  0.96067078  0.32294840    -0.21400
C1132       C  0.16254469  0.93648198  0.35056149     0.01600
H1133       H  0.19380282  0.98275159  0.28053626     0.15400
H1134       H  0.12966761  0.96657399  0.31320523     0.22600
N1135       N  0.44483688  0.88020920  0.35181006    -0.00900
C1136       C  0.48119329  0.87803834  0.35639989     0.01700
C1137       C  0.49908241  0.85408911  0.33383474    -0.21200
C1138       C  0.47216030  0.83880866  0.31657591    -0.21400
C1139       C  0.43895774  0.85341444  0.33005157     0.01600
H1140       H  0.02843722  0.84890167  0.32968168     0.15400
H1141       H  0.47578923  0.81519217  0.30003347     0.15400
N1142       N  0.37364005  0.87842035  0.40756175    -0.00900
C1143       C  0.34321858  0.89005233  0.42813943     0.01700
C1144       C  0.31240352  0.88879827  0.41055363    -0.21200
C1145       C  0.32489334  0.88967554  0.37697255    -0.21400
C1146       C  0.36306950  0.88841708  0.37553622     0.01600
H1147       H  0.28440525  0.89293940  0.42098930     0.15400
H1148       H  0.30806831  0.89655059  0.35654319     0.15400
N1149       N  0.45044195  0.81080836  0.40498506    -0.00900
C1150       C  0.48385222  0.79856299  0.41651419     0.01700
C1151       C  0.49812769  0.76931965  0.39730591    -0.21200
C1152       C  0.47435450  0.76311905  0.37298954    -0.21400
C1153       C  0.44494714  0.78767792  0.37832745     0.01600
H1154       H  0.02415137  0.75489526  0.39984391     0.15400
H1155       H  0.47852119  0.74298003  0.35330303     0.15400
N1156       N  0.41647233  0.79281569  0.35454483    -0.00900
C1157       C  0.39557779  0.76733647  0.33928785     0.01700
C1158       C  0.36629422  0.78741374  0.32654194    -0.21200
C1159       C  0.37783754  0.82475348  0.32269242    -0.21400
C1160       C  0.40908588  0.82666648  0.33939632     0.01600
H1161       H  0.34628064  0.77601188  0.31082678     0.15400
H1162       H  0.36957505  0.84492594  0.30359950     0.15400
N1163       N  0.38716044  0.83960441  0.41376068    -0.00900
C1164       C  0.36769906  0.81678433  0.43884679     0.01700
C1165       C  0.38570033  0.81597110  0.46760296    -0.21200
C1166       C  0.42049134  0.83001094  0.45828466    -0.21400
C1167       C  0.42287501  0.83534140  0.42315841     0.01600
H1168       H  0.37682904  0.80000011  0.49065722     0.15400
H1169       H  0.44294001  0.82474063  0.47395170     0.15400
N1170       N  0.38614885  0.91300955  0.35038685    -0.00900
C1171       C  0.37635249  0.94102499  0.32661251     0.01700
C1172       C  0.40711243  0.96285222  0.31502661    -0.21200
C1173       C  0.43674407  0.94556178  0.32830897    -0.21400
C1174       C  0.42355092  0.91475996  0.34961704     0.01600
H1175       H  0.40923744  0.98340388  0.29351851     0.15400
H1176       H  0.46496211  0.95046444  0.31778414     0.15400
N1177       N  0.11557688  0.88709320  0.08302657    -0.00900
C1178       C  0.09667773  0.90055528  0.05697901     0.01700
C1179       C  0.07624764  0.93145636  0.06818766    -0.21200
C1180       C  0.07910300  0.93238043  0.10286644    -0.21400
C1181       C  0.10338102  0.90390176  0.11224239     0.01600
H1182       H  0.05536308  0.94619065  0.05469594     0.15400
H1183       H  0.05910997  0.94642625  0.11947136     0.15400
N1184       N  0.13263347  0.90843784  0.18797614    -0.00900
C1185       C  0.11598901  0.94174012  0.19967398     0.01700
C1186       C  0.14074214  0.96146623  0.21711178    -0.21200
C1187       C  0.17325789  0.94183906  0.21567693    -0.21400
C1188       C  0.16810458  0.91012914  0.19733151     0.01600
H1189       H  0.13583312  0.98834808  0.22913061     0.15400
H1190       H  0.19801123  0.95114111  0.22599460     0.15400
N1191       N  0.19619776  0.88927867  0.09413392    -0.00900
C1192       C  0.21031651  0.92182346  0.07628731     0.01700
C1193       C  0.22986478  0.94388568  0.09674482    -0.21200
C1194       C  0.22526500  0.92737583  0.12820655    -0.21400
C1195       C  0.20470464  0.89427561  0.12632613     0.01600
H1196       H  0.24246290  0.97192582  0.09064241     0.15400
H1197       H  0.23662617  0.93817901  0.15022853     0.15400
N1198       N  0.17657723  0.85734422  0.08277926    -0.00900
C1199       C  0.18614462  0.81947203  0.08424102     0.01700
C1200       C  0.15605500  0.79554622  0.08259668    -0.21200
C1201       C  0.12638265  0.81815679  0.08043818    -0.21400
C1202       C  0.13939062  0.85525907  0.08124539     0.01600
H1203       H  0.15590005  0.76456292  0.08215437     0.15400
H1204       H  0.09823148  0.80804710  0.07988484     0.15400
N1205       N  0.19750090  0.88470651  0.18638515    -0.00900
C1206       C  0.22874315  0.87487172  0.20112984     0.01700
C1207       C  0.24391853  0.84340602  0.18588287    -0.21200
C1208       C  0.22688796  0.84000432  0.15697438    -0.21400
C1209       C  0.20016751  0.86791382  0.15620316     0.01600
H1210       H  0.26985028  0.82997819  0.19094269     0.15400
H1211       H  0.24246280  0.82985126  0.13519083     0.15400
N1212       N  0.11696024  0.87658223  0.17239545    -0.00900
C1213       C  0.11746911  0.83714934  0.18186099     0.01700
C1214       C  0.09435114  0.81821027  0.16269096    -0.21200
C1215       C  0.07982805  0.84435491  0.14126620    -0.21400
C1216       C  0.09620358  0.87943629  0.14486350     0.01600
H1217       H  0.08891608  0.78775669  0.16389440     0.15400
H1218       H  0.06419736  0.83684013  0.12073744     0.15400
N1219       N  0.37140213  0.86482481  0.09802412    -0.00900
C1220       C  0.34335058  0.88433817  0.08416304     0.01700
C1221       C  0.31307382  0.88475385  0.10747594    -0.21200
C1222       C  0.32383948  0.87044532  0.13768757    -0.21400
C1223       C  0.36141882  0.86302151  0.13299364     0.01600
H1224       H  0.28738494  0.89875728  0.10391272     0.15400
H1225       H  0.30852104  0.87484974  0.16164291     0.15400
N1226       N  0.44813717  0.87516983  0.17472874    -0.00900
C1227       C  0.47424856  0.89458179  0.19085144     0.01700
C1228       C  0.49185676  0.86896161  0.21169627    -0.21200
C1229       C  0.47705740  0.83328507  0.20876089    -0.21400
C1230       C  0.44968385  0.83782474  0.18686866     0.01600
H1231       H  0.01436583  0.87547321  0.22677269     0.15400
H1232       H  0.98808032  0.80709928  0.21915215     0.15400
N1233       N  0.44996879  0.84097706  0.07962017    -0.00900
C1234       C  0.47865609  0.86198261  0.06354022     0.01700
C1235       C  0.50304159  0.86829431  0.08760908    -0.21200
C1236       C  0.49070040  0.84813198  0.11710788    -0.21400
C1237       C  0.45792818  0.83095467  0.11152891     0.01600
H1238       H  0.03059794  0.87844765  0.08259203     0.15400
H1239       H  0.50547686  0.84414016  0.13935912     0.15400
N1240       N  0.38346611  0.83132387  0.08089512    -0.00900
C1241       C  0.36341662  0.80105097  0.06997508     0.01700
C1242       C  0.38665092  0.77893781  0.04960452    -0.21200
C1243       C  0.42082078  0.79588611  0.04614081    -0.21400
C1244       C  0.41823552  0.82735401  0.06556063     0.01600
H1245       H  0.37929649  0.75273979  0.03818161     0.15400
H1246       H  0.44573914  0.78396108  0.03400650     0.15400
N1247       N  0.43370672  0.80643817  0.17071720    -0.00900
C1248       C  0.41295936  0.77560386  0.18469540     0.01700
C1249       C  0.40126791  0.75476160  0.15891652    -0.21200
C1250       C  0.41670307  0.77173239  0.12895372    -0.21400
C1251       C  0.43567846  0.80415138  0.13659344     0.01600
H1252       H  0.38795016  0.72674124  0.16164316     0.15400
H1253       H  0.41707265  0.75886429  0.10495885     0.15400
N1254       N  0.38486526  0.87641279  0.15958993    -0.00900
C1255       C  0.37257834  0.90765040  0.17662512     0.01700
C1256       C  0.39102139  0.94056846  0.16301257    -0.21200
C1257       C  0.42101076  0.92786673  0.14400629    -0.21400
C1258       C  0.42072378  0.88889128  0.15201545     0.01600
H1259       H  0.38694842  0.96974959  0.17049686     0.15400
H1260       H  0.44447085  0.94557080  0.13449526     0.15400
N1261       N  0.39318106  0.63328050  0.07672938    -0.00900
C1262       C  0.41800454  0.61513060  0.05421737     0.01700
C1263       C  0.42331282  0.57772535  0.06652195    -0.21200
C1264       C  0.41508991  0.57809511  0.10052139    -0.21400
C1265       C  0.40229591  0.61450030  0.10634750     0.01600
H1266       H  0.44172053  0.55683247  0.05501847     0.15400
H1267       H  0.42628158  0.55814477  0.11870249     0.15400
N1268       N  0.40708913  0.58878924  0.18295149    -0.00900
C1269       C  0.42147319  0.55759396  0.19974275     0.01700
C1270       C  0.39372923  0.53812692  0.22014843    -0.21200
C1271       C  0.36135098  0.55643484  0.21582719    -0.21400
C1272       C  0.37005631  0.58709532  0.19323968     0.01600
H1273       H  0.39647646  0.01177643  0.23534839     0.15400
H1274       H  0.33428087  0.54692361  0.22679001     0.15400
N1275       N  0.33648382  0.56542976  0.09492113    -0.00900
C1276       C  0.33223034  0.52737512  0.08961578     0.01700
C1277       C  0.32558622  0.50688085  0.12027443    -0.21200
C1278       C  0.32563610  0.53294248  0.14517562    -0.21400
C1279       C  0.33230541  0.56889859  0.12919365     0.01600
H1280       H  0.32044426  0.97628107  0.12413047     0.15400
H1281       H  0.31914761  0.52628363  0.17191475     0.15400
N1282       N  0.35377180  0.63143976  0.07149375    -0.00900
C1283       C  0.33447559  0.65516847  0.04971106     0.01700
C1284       C  0.31234247  0.63250672  0.03162919    -0.21200
C1285       C  0.31357159  0.59591644  0.04425569    -0.21400
C1286       C  0.33719478  0.59621350  0.06929285     0.01600
H1287       H  0.29154911  0.64241980  0.01525595     0.15400
H1288       H  0.29518819  0.57290252  0.03889928     0.15400
N1289       N  0.34237561  0.60987897  0.17864103    -0.00900
C1290       C  0.32397439  0.63951630  0.19327944     0.01700
C1291       C  0.30825371  0.65978568  0.16745962    -0.21200
C1292       C  0.30916050  0.63644158  0.14006187    -0.21400
C1293       C  0.33059410  0.60555432  0.14763088     0.01600
H1294       H  0.29137886  0.68494322  0.17080649     0.15400
H1295       H  0.29171071  0.63845182  0.11946704     0.15400
N1296       N  0.42624934  0.62044850  0.16442395    -0.00900
C1297       C  0.44966484  0.64637244  0.17673991     0.01700
C1298       C  0.46222504  0.67288337  0.15098758    -0.21200
C1299       C  0.44380136  0.66571616  0.12331125    -0.21400
C1300       C  0.42133500  0.63407658  0.13211707     0.01600
H1301       H  0.47855292  0.69851674  0.15348383     0.15400
H1302       H  0.44638519  0.68216430  0.09930638     0.15400
N1303       N  0.10391209  0.66345402  0.08386670    -0.00900
C1304       C  0.08080667  0.64126843  0.06566795     0.01700
C1305       C  0.06167767  0.61304304  0.08598254    -0.21200
C1306       C  0.06452372  0.62224412  0.11779059    -0.21400
C1307       C  0.08805457  0.65332484  0.11624483     0.01600
H1308       H  0.04026437  0.59398596  0.07881956     0.15400
H1309       H  0.04553054  0.61249397  0.13902805     0.15400
N1310       N  0.14554468  0.58978321  0.09555662    -0.00900
C1311       C  0.13369212  0.55342112  0.09064170     0.01700
C1312       C  0.12383210  0.53398604  0.12130544    -0.21200
C1313       C  0.13080087  0.55832811  0.14604241    -0.21400
C1314       C  0.14423427  0.59210650  0.12954979     0.01600
H1315       H  0.11771925  0.50363041  0.12518157     0.15400
H1316       H  0.12994574  0.55060849  0.17286915     0.15400
N1317       N  0.09025635  0.62661712  0.18853970    -0.00900
C1318       C  0.06748088  0.60463527  0.21160109     0.01700
C1319       C  0.08422078  0.60161409  0.24146948    -0.21200
C1320       C  0.12103905  0.60954853  0.23341314    -0.21400
C1321       C  0.12372049  0.62202467  0.20020441     0.01600
H1322       H  0.07274681  0.58653599  0.26442756     0.15400
H1323       H  0.14325121  0.60471972  0.24927805     0.15400
N1324       N  0.15746921  0.62885716  0.17937319    -0.00900
C1325       C  0.18839010  0.64515983  0.18852961     0.01700
C1326       C  0.21208155  0.65310174  0.15998805    -0.21200
C1327       C  0.19715681  0.63724238  0.13347761    -0.21400
C1328       C  0.16332584  0.62221188  0.14622040     0.01600
H1329       H  0.23964499  0.66377482  0.15919633     0.15400
H1330       H  0.21177784  0.63275629  0.10907004     0.15400
N1331       N  0.08184812  0.66531721  0.17785886    -0.00900
C1332       C  0.06787266  0.69446795  0.19745076     0.01700
C1333       C  0.05211979  0.72093808  0.17586338    -0.21200
C1334       C  0.06236697  0.71173121  0.14297460    -0.21400
C1335       C  0.08195983  0.67815619  0.14487822     0.01600
H1336       H  0.03929636  0.74761855  0.18296378     0.15400
H1337       H  0.05505644  0.72720519  0.12019915     0.15400
N1338       N  0.14422985  0.65908734  0.07856403    -0.00900
C1339       C  0.16828796  0.68154454  0.05549503     0.01700
C1340       C  0.17801316  0.65916476  0.02832018    -0.21200
C1341       C  0.17229491  0.62173234  0.03949507    -0.21400
C1342       C  0.15468632  0.62249036  0.07168984     0.01600
H1343       H  0.19672582  0.66742917  0.00631411     0.15400
H1344       H  0.18347702  0.59830609  0.02579171     0.15400
O1345       O  0.23144151  0.77967279  0.10377140    -0.71800
O1346       O  0.29850370  0.69654073  0.08797118    -0.71900
O1347       O  0.30744635  0.77183697  0.09982189    -0.71900
O1348       O  0.21849208  0.70584633  0.09129513    -0.72000
O1349       O  0.22272991  0.72281057  0.03665093    -0.71900
O1350       O  0.30918290  0.78725830  0.04461012    -0.71900
O1351       O  0.30101963  0.71199032  0.03301220    -0.71900
O1352       O  0.23549138  0.79726183  0.04885043    -0.71900
Ni1353     Ni  0.26390320  0.73784282  0.09768449     1.25400
Ni1354     Ni  0.26726808  0.75509798  0.03892388     1.25400
C1355       C  0.22181812  0.80131859  0.07919809     0.90300
C1356       C  0.31225683  0.69094053  0.05779674     0.90300
C1357       C  0.32335113  0.78946577  0.07290060     0.90300
C1358       C  0.20418539  0.70520544  0.06240518     0.90500
O1359       O  0.13918596  0.79464719  0.29549064    -0.71800
O1360       O  0.07386406  0.73708863  0.24434897    -0.71900
O1361       O  0.10395322  0.73045818  0.30682297    -0.71900
O1362       O  0.10528604  0.81092286  0.23811669    -0.72000
O1363       O  0.15294049  0.78516829  0.20875196    -0.71900
O1364       O  0.15359031  0.70295371  0.28158194    -0.71900
O1365       O  0.12409430  0.71042988  0.21960354    -0.71900
O1366       O  0.18768791  0.76829614  0.26746572    -0.71900
Ni1367     Ni  0.10367679  0.76918529  0.27192291     1.25400
Ni1368     Ni  0.15628417  0.74086754  0.24303496     1.25400
C1369       C  0.17408611  0.78787779  0.29126946     0.90300
C1370       C  0.08905230  0.71331244  0.22319971     0.90300
C1371       C  0.12908277  0.70514445  0.30737665     0.90300
C1372       C  0.12854939  0.81251926  0.21208943     0.90500
O1373       O  0.21467522  0.59869179  0.22417382    -0.71800
O1374       O  0.27495296  0.57380318  0.29620010    -0.71900
O1375       O  0.20133033  0.57063782  0.28892403    -0.71900
O1376       O  0.28728462  0.59725890  0.23057875    -0.72000
O1377       O  0.28357506  0.65875666  0.24256033    -0.71900
O1378       O  0.19780886  0.63000579  0.30702708    -0.71900
O1379       O  0.27356210  0.63509318  0.30988956    -0.71900
O1380       O  0.20966063  0.65868132  0.24102458    -0.71900
Ni1381     Ni  0.24452501  0.58296228  0.25980395     1.25400
Ni1382     Ni  0.24084330  0.64781094  0.27620264     1.25400
C1383       C  0.20411088  0.63355089  0.21991771     0.90300
C1384       C  0.28713594  0.60162979  0.31214812     0.90300
C1385       C  0.18470449  0.59539824  0.30691155     0.90300
C1386       C  0.29851093  0.63185657  0.22486713     0.90500
O1387       O  0.47059922  0.68255542  0.22158841    -0.71800
O1388       O  0.44510268  0.74374410  0.29969472    -0.71900
O1389       O  0.47295091  0.67284944  0.28972287    -0.71900
O1390       O  0.44721897  0.75495916  0.23026997    -0.72000
O1391       O  0.39019826  0.73104784  0.23023683    -0.71900
O1392       O  0.41457501  0.65071760  0.29405101    -0.71900
O1393       O  0.38762878  0.72070726  0.29992256    -0.71900
O1394       O  0.41324082  0.65801887  0.22679495    -0.71900
Ni1395     Ni  0.46115044  0.71440126  0.26040019     1.25400
Ni1396     Ni  0.39933614  0.68957587  0.26305037     1.25400
C1397       C  0.44527427  0.66098917  0.21103919     0.90300
C1398       C  0.41117051  0.74172458  0.31269941     0.90300
C1399       C  0.44817564  0.64859124  0.30150526     0.90300
C1400       C  0.41599653  0.75485289  0.21798652     0.90500
O1401       O  0.34068840  0.88065922  0.23144817    -0.71800
O1402       O  0.26382024  0.90215109  0.30479541    -0.71900
O1403       O  0.26784769  0.87324584  0.24304183    -0.71900
O1404       O  0.33819892  0.90146198  0.29925865    -0.72000
O1405       O  0.33725123  0.96253436  0.28111055    -0.71900
O1406       O  0.26107703  0.93217842  0.22108168    -0.71900
O1407       O  0.26338484  0.96218301  0.28272500    -0.71900
O1408       O  0.33561459  0.94192362  0.21441356    -0.71900
Ni1409     Ni  0.30310376  0.88731199  0.27053651     1.25400
Ni1410     Ni  0.29955073  0.95198323  0.24907933     1.25400
C1411       C  0.34828878  0.90889325  0.20913071     0.90300
C1412       C  0.25010637  0.93638444  0.30372402     0.90300
C1413       C  0.25195214  0.89594652  0.22351326     0.90300
C1414       C  0.34830703  0.93560589  0.30179197     0.90500
O1415       O  0.32264140  0.69313203  0.40674234    -0.71800
O1416       O  0.25476655  0.78275269  0.40313650    -0.71900
O1417       O  0.33067539  0.77601211  0.40636085    -0.71900
O1418       O  0.24995778  0.70551076  0.39931183    -0.72000
O1419       O  0.24164282  0.69900033  0.45578137    -0.71900
O1420       O  0.32015577  0.77199843  0.46249373    -0.71900
O1421       O  0.24614477  0.77477031  0.45924312    -0.71900
O1422       O  0.31378840  0.69250022  0.46276840    -0.71900
Ni1423     Ni  0.29039073  0.73976223  0.40170561     1.25400
Ni1424     Ni  0.28035736  0.73462034  0.46184796     1.25400
C1425       C  0.32662185  0.67615453  0.43625416     0.90300
C1426       C  0.23799880  0.79181629  0.43174810     0.90300
C1427       C  0.33767753  0.78740170  0.43535764     0.90300
C1428       C  0.23372499  0.68989205  0.42633004     0.90500
O1429       O  0.06900713  0.97589966  0.16954048    -0.71800
O1430       O  0.47708926  0.53446120  0.16844019    -0.71900
O1431       O  0.04849770  0.55428601  0.17426580    -0.71900
O1432       O  0.49685567  0.95658423  0.16422413    -0.72000
O1433       O  0.48706235  0.94945979  0.22029908    -0.71900
O1434       O  0.03954389  0.54331943  0.22991248    -0.71900
O1435       O  0.46952665  0.52504296  0.22456128    -0.71900
O1436       O  0.05889133  0.96605048  0.22516174    -0.71900
Ni1437     Ni  0.02324762  0.00561372  0.16695151     1.25400
Ni1438     Ni  0.01358847  0.99570547  0.22671811     1.25400
C1439       C  0.07832876  0.95968685  0.19734798     0.90300
C1440       C  0.45875626  0.54002551  0.19697004     0.90300
C1441       C  0.05052679  0.56598951  0.20432299     0.90300
C1442       C  0.48452871  0.93636416  0.19107455     0.90500
O1443       O  0.48262451  0.49391788  0.36560383    -0.71800
O1444       O  0.07980265  0.96015506  0.36244310    -0.71900
O1445       O  0.51724391  0.93075004  0.34904706    -0.71900
O1446       O  0.04675529  0.52307296  0.37415837    -0.72000
O1447       O  0.04049446  0.50662892  0.42936592    -0.71900
O1448       O  0.49833995  0.91273489  0.40273694    -0.71900
O1449       O  0.06690559  0.93527195  0.41534940    -0.71900
O1450       O  0.47288444  0.48030523  0.42109182    -0.71900
Ni1451     Ni  0.03200791  0.97779506  0.36107158     1.25400
Ni1452     Ni  0.01981751  0.95779144  0.41975645     1.25400
C1453       C  0.46217592  0.49380352  0.39341370     0.90300
C1454       C  0.08608480  0.93694064  0.38684348     0.90300
C1455       C  0.50042040  0.90785111  0.37072516     0.90300
C1456       C  0.04789481  0.53112454  0.40428377     0.90500
O1457       O  0.21243405  0.98760867  0.47060000    -0.71800
O1458       O  0.17738071  0.53757909  0.04769278    -0.71900
O1459       O  0.21524040  0.97331922  0.03586382    -0.71900
O1460       O  0.17135568  0.55009338  0.48128628    -0.72000
O1461       O  0.11995330  0.51478170  0.48383272    -0.71900
O1462       O  0.16287103  0.93916047  0.04067490    -0.71900
O1463       O  0.12379459  0.50551071  0.05120531    -0.71900
O1464       O  0.16097416  0.95200462  0.47266889    -0.71900
Ni1465     Ni  0.19575537  0.01346222  0.00885583     1.25400
Ni1466     Ni  0.13981000  0.97649019  0.51243719     1.25400
C1467       C  0.19374039  0.96110659  0.45926502     0.90300
C1468       C  0.14475177  0.53174437  0.06118008     0.90300
C1469       C  0.19593134  0.94399121  0.04805269     0.90300
C1470       C  0.14071257  0.54177459  0.46970681     0.90500
O1471       O  0.05320923  0.64065934  0.45163484    -0.71800
O1472       O  0.47681966  0.60884451  0.02174096    -0.71900
O1473       O  0.47715597  0.62640352  0.45779880    -0.71900
O1474       O  0.05306110  0.62309664  0.01771638    -0.72000
O1475       O  0.03945856  0.68206749  0.03299731    -0.71900
O1476       O  0.46835030  0.68849125  0.46374317    -0.71900
O1477       O  0.46076083  0.66886810  0.03083154    -0.71900
O1478       O  0.04338677  0.70112767  0.46412248    -0.71900
Ni1479     Ni  0.01555650  0.62293571  0.48691713     1.25400
Ni1480     Ni  0.00283862  0.68762175  0.49862538     1.25400
C1481       C  0.06136872  0.67626956  0.44625593     0.90300
C1482       C  0.45326962  0.63258548  0.03479066     0.90300
C1483       C  0.46052735  0.65709849  0.45031223     0.90300
C1484       C  0.05902342  0.65135112  0.03588757     0.90500
O1485       O  0.30407336  0.49233444  0.04808793    -0.71800
O1486       O  0.31072630  0.92605478  0.47225359    -0.71900
O1487       O  0.31269368  0.91685694  0.04083727    -0.71900
O1488       O  0.29977316  0.50402507  0.48007685    -0.72000
O1489       O  0.36015477  0.51365402  0.46888723    -0.71900
O1490       O  0.37350326  0.92736878  0.03738331    -0.71900
O1491       O  0.37193523  0.93248113  0.46684624    -0.71900
O1492       O  0.36447485  0.50526705  0.03867658    -0.71900
Ni1493     Ni  0.30492986  0.95958520  0.01018492     1.25400
Ni1494     Ni  0.36985326  0.97002779  0.00233914     1.25400
C1495       C  0.33349939  0.50861220  0.05657018     0.90300
C1496       C  0.34244210  0.91684635  0.45759694     0.90300
C1497       C  0.34423313  0.90941672  0.05160478     0.90300
C1498       C  0.32651115  0.52392307  0.46423894     0.90500
O1499       O  0.50483948  0.88158528  0.00643491    -0.71800
O1500       O  0.08857089  0.86217074  0.43960487    -0.71900
O1501       O  0.51188214  0.85144538  0.44256008    -0.71900
O1502       O  0.07720970  0.89769451  0.00095371    -0.72000
O1503       O  0.08250808  0.84151636  0.02878494    -0.71900
O1504       O  0.02302959  0.79310056  0.46400187    -0.71900
O1505       O  0.09738585  0.80675852  0.46736906    -0.71900
O1506       O  0.01095859  0.82156845  0.02696568    -0.71900
Ni1507     Ni  0.04543478  0.87516295  0.47106491     1.25400
Ni1508     Ni  0.05397146  0.81373200  0.49749470     1.25400
C1509       C  0.49646963  0.85451059  0.02938900     0.90300
C1510       C  0.10644094  0.83032290  0.44237328     0.90300
C1511       C  0.50654488  0.81519814  0.44288494     0.90300
C1512       C  0.08681550  0.87847320  0.02691785     0.90500
N1513       N  0.33410225  0.57996581  0.91467165    -0.00900
C1514       C  0.31443625  0.55524536  0.93836990     0.01700
C1515       C  0.28103967  0.54790109  0.92559226    -0.21200
C1516       C  0.28147805  0.56344113  0.89314463    -0.21400
C1517       C  0.31478479  0.58215620  0.88659959     0.01600
H1518       H  0.25974038  0.52916331  0.93753642     0.15400
H1519       H  0.26185767  0.55712413  0.87511041     0.15400
N1520       N  0.41854716  0.54090872  0.87415848    -0.00900
C1521       C  0.42567748  0.50898038  0.89257604     0.01700
C1522       C  0.39405301  0.48710710  0.90044961    -0.21200
C1523       C  0.36614926  0.50625698  0.88566955    -0.21400
C1524       C  0.38258766  0.53883167  0.86943145     0.01600
H1525       H  0.39285573  0.95800305  0.91084782     0.15400
H1526       H  0.33821140  0.49575877  0.88405922     0.15400
N1527       N  0.42433103  0.62045397  0.91168184    -0.00900
C1528       C  0.43436494  0.65471858  0.92393367     0.01700
C1529       C  0.42806888  0.68472998  0.90201738    -0.21200
C1530       C  0.42114915  0.66846220  0.87264941    -0.21400
C1531       C  0.42270189  0.62888124  0.87798430     0.01600
H1532       H  0.93247351  0.71451701  0.90595397     0.15400
H1533       H  0.42052574  0.68432354  0.84921807     0.15400
N1534       N  0.35833900  0.61074227  0.92091594    -0.00900
C1535       C  0.34668809  0.63814992  0.94287944     0.01700
C1536       C  0.36575774  0.63267426  0.97130930    -0.21200
C1537       C  0.39077772  0.60392530  0.96536691    -0.21400
C1538       C  0.39240528  0.60115205  0.93053789     0.01600
H1539       H  0.36809155  0.65312091  0.99039196     0.15400
H1540       H  0.41377722  0.59906945  0.98053318     0.15400
N1541       N  0.44027683  0.60466519  0.85244517    -0.00900
C1542       C  0.45873206  0.61632882  0.82235787     0.01700
C1543       C  0.47563626  0.58632629  0.80643273    -0.21200
C1544       C  0.46536359  0.55437338  0.82608953    -0.21400
C1545       C  0.44466972  0.56616974  0.85478250     0.01600
H1546       H  0.48767190  0.58667039  0.78042887     0.15400
H1547       H  0.46690679  0.52589802  0.81670787     0.15400
N1548       N  0.33371709  0.58308474  0.85313564    -0.00900
C1549       C  0.32410073  0.59777418  0.82295858     0.01700
C1550       C  0.35181279  0.59159602  0.79770040    -0.21200
C1551       C  0.37751013  0.56925994  0.81184865    -0.21400
C1552       C  0.36542817  0.56446894  0.84564333     0.01600
H1553       H  0.35083465  0.59822022  0.77091318     0.15400
H1554       H  0.40060662  0.55566563  0.79833791     0.15400
N1555       N  0.11527178  0.67029035  0.89787326    -0.00900
C1556       C  0.09527529  0.68930006  0.92341519     0.01700
C1557       C  0.11757110  0.71484271  0.93706693    -0.21200
C1558       C  0.15224969  0.71021270  0.92256362    -0.21400
C1559       C  0.15176192  0.67787814  0.90364024     0.01600
H1560       H  0.11042139  0.73190600  0.95864180     0.15400
H1561       H  0.17540953  0.72379053  0.93240920     0.15400
N1562       N  0.07172844  0.59461181  0.88555471    -0.00900
C1563       C  0.04897206  0.57141331  0.90689259     0.01700
C1564       C  0.01467875  0.58812050  0.91125122    -0.21200
C1565       C  0.01738605  0.62370389  0.89480839    -0.21400
C1566       C  0.05318241  0.62757705  0.88229401     0.01600
H1567       H  0.98897289  0.57338960  0.92034600     0.15400
H1568       H  0.99596016  0.64364085  0.88963902     0.15400
N1569       N  0.14574343  0.58385431  0.91412048    -0.00900
C1570       C  0.13568405  0.55122387  0.93392158     0.01700
C1571       C  0.13641796  0.51951675  0.91464186    -0.21200
C1572       C  0.14912974  0.53167911  0.88307146    -0.21400
C1573       C  0.15087556  0.57128185  0.88260704     0.01600
H1574       H  0.13112869  0.48984481  0.92311907     0.15400
H1575       H  0.14887602  0.51478139  0.86138157     0.15400
N1576       N  0.17830529  0.64814966  0.91349511    -0.00900
C1577       C  0.21287839  0.65478195  0.92423251     0.01700
C1578       C  0.23002641  0.62233359  0.93493019    -0.21200
C1579       C  0.20631368  0.59378953  0.93148529    -0.21400
C1580       C  0.17410765  0.60948184  0.92195326     0.01600
H1581       H  0.25754278  0.61995453  0.94343244     0.15400
H1582       H  0.21171102  0.56371675  0.93409227     0.15400
N1583       N  0.13460973  0.59091344  0.85589658    -0.00900
C1584       C  0.14776904  0.58392474  0.82384995     0.01700
C1585       C  0.12095825  0.56560248  0.80775299    -0.21200
C1586       C  0.08845351  0.56755464  0.82822165    -0.21400
C1587       C  0.09780025  0.58325716  0.85771455     0.01600
H1588       H  0.12432434  0.55337991  0.78326005     0.15400
H1589       H  0.06116391  0.55976969  0.82163324     0.15400
N1590       N  0.10179915  0.67264300  0.86414887    -0.00900
C1591       C  0.12109759  0.67173802  0.83204727     0.01700
C1592       C  0.09795390  0.65397837  0.81115151    -0.21200
C1593       C  0.06321465  0.65200602  0.82681831    -0.21400
C1594       C  0.06753969  0.65853113  0.85987029     0.01600
H1595       H  0.10350167  0.64928793  0.78454771     0.15400
H1596       H  0.04011677  0.63758420  0.81712626     0.15400
N1597       N  0.19586389  0.91602973  0.91170354    -0.00900
C1598       C  0.21156501  0.94244517  0.92992752     0.01700
C1599       C  0.24570016  0.95408232  0.91505929    -0.21200
C1600       C  0.24906520  0.93949240  0.88419303    -0.21400
C1601       C  0.21651729  0.91961212  0.88094717     0.01600
H1602       H  0.26594232  0.97195921  0.92484379     0.15400
H1603       H  0.26983857  0.94942155  0.86438483     0.15400
N1604       N  0.13798364  0.90522627  0.85898016    -0.00900
C1605       C  0.10537379  0.90396649  0.87705344     0.01700
C1606       C  0.08527533  0.87231542  0.86939320    -0.21200
C1607       C  0.10658039  0.85396954  0.84543236    -0.21400
C1608       C  0.13937577  0.87455566  0.84064221     0.01600
H1609       H  0.05753216  0.86406679  0.87932867     0.15400
H1610       H  0.09921606  0.82754157  0.83476075     0.15400
N1611       N  0.16458489  0.82703023  0.89767997    -0.00900
C1612       C  0.13079839  0.81498094  0.91337326     0.01700
C1613       C  0.11755597  0.78583808  0.89563518    -0.21200
C1614       C  0.14372673  0.77890416  0.86957869    -0.21400
C1615       C  0.17109438  0.80658250  0.86948457     0.01600
H1616       H  0.09057210  0.77216537  0.90015315     0.15400
H1617       H  0.14021116  0.75907592  0.85041280     0.15400
N1618       N  0.19331745  0.84519421  0.91308643    -0.00900
C1619       C  0.21065445  0.82357956  0.93656664     0.01700
C1620       C  0.20407881  0.83811409  0.96798913    -0.21200
C1621       C  0.18721355  0.87214419  0.96326472    -0.21400
C1622       C  0.18525958  0.87861029  0.92839731     0.01600
H1623       H  0.21440748  0.82755675  0.99143529     0.15400
H1624       H  0.18431985  0.89175011  0.98320961     0.15400
N1625       N  0.18635866  0.82553069  0.83789952    -0.00900
C1626       C  0.19942392  0.81041190  0.80867747     0.01700
C1627       C  0.21016845  0.83981121  0.78531200    -0.21200
C1628       C  0.19037390  0.87090170  0.79542844    -0.21400
C1629       C  0.17451113  0.85994284  0.82708674     0.01600
H1630       H  0.21659725  0.83514615  0.75882360     0.15400
H1631       H  0.18232990  0.89455301  0.77902885     0.15400
N1632       N  0.19899462  0.92969318  0.85068469    -0.00900
C1633       C  0.21524852  0.94726128  0.82209852     0.01700
C1634       C  0.18962481  0.96839578  0.80544697    -0.21200
C1635       C  0.15610168  0.96067089  0.82294719    -0.21400
C1636       C  0.16254408  0.93648203  0.85056040     0.01600
H1637       H  0.19380401  0.98275230  0.78053617     0.15400
H1638       H  0.12966785  0.96657391  0.81320357     0.22600
N1639       N  0.44483627  0.88020963  0.85180979    -0.00900
C1640       C  0.48119290  0.87803869  0.85639909     0.01700
C1641       C  0.49908119  0.85408998  0.83383344    -0.21200
C1642       C  0.47215912  0.83880963  0.81657477    -0.21400
C1643       C  0.43895662  0.85341494  0.83005143     0.01600
H1644       H  0.02843737  0.84890011  0.82968353     0.15400
H1645       H  0.47578791  0.81519328  0.80003238     0.15400
N1646       N  0.37364074  0.87842073  0.90756202    -0.00900
C1647       C  0.34321925  0.89005224  0.92814004     0.01700
C1648       C  0.31240434  0.88879830  0.91055425    -0.21200
C1649       C  0.32489372  0.88967585  0.87697331    -0.21400
C1650       C  0.36306974  0.88841762  0.87553660     0.01600
H1651       H  0.28440552  0.89293907  0.92099037     0.15400
H1652       H  0.30806849  0.89655104  0.85654370     0.15400
N1653       N  0.45044362  0.81080950  0.90498508    -0.00900
C1654       C  0.48385387  0.79856405  0.91651435     0.01700
C1655       C  0.49812909  0.76932005  0.89730654    -0.21200
C1656       C  0.47435580  0.76311925  0.87299023    -0.21400
C1657       C  0.44494883  0.78767871  0.87832781     0.01600
H1658       H  0.02414939  0.75489441  0.89984422     0.15400
H1659       H  0.47852204  0.74297977  0.85330425     0.15400
N1660       N  0.41647362  0.79281553  0.85454543    -0.00900
C1661       C  0.39557892  0.76733573  0.83928962     0.01700
C1662       C  0.36629371  0.78741203  0.82654539    -0.21200
C1663       C  0.37783609  0.82475209  0.82269547    -0.21400
C1664       C  0.40908568  0.82666611  0.83939733     0.01600
H1665       H  0.34627964  0.77600974  0.81083146     0.15400
H1666       H  0.36957091  0.84492489  0.80360366     0.15400
N1667       N  0.38716170  0.83960500  0.91376075    -0.00900
C1668       C  0.36770073  0.81678459  0.93884675     0.01700
C1669       C  0.38570204  0.81597138  0.96760303    -0.21200
C1670       C  0.42049294  0.83001215  0.95828467    -0.21400
C1671       C  0.42287642  0.83534254  0.92315840     0.01600
H1672       H  0.37683112  0.80000060  0.99065684     0.15400
H1673       H  0.44294153  0.82474273  0.97395168     0.15400
N1674       N  0.38614871  0.91301013  0.85038717    -0.00900
C1675       C  0.37635234  0.94102580  0.82661291     0.01700
C1676       C  0.40711228  0.96285306  0.81502745    -0.21200
C1677       C  0.43674392  0.94556272  0.82830963    -0.21400
C1678       C  0.42355071  0.91476055  0.84961725     0.01600
H1679       H  0.40923750  0.98340471  0.79351898     0.15400
H1680       H  0.46496192  0.95046548  0.81778470     0.15400
N1681       N  0.11557730  0.88709421  0.58302730    -0.00900
C1682       C  0.09667858  0.90055630  0.55697948     0.01700
C1683       C  0.07624908  0.93145793  0.56818781    -0.21200
C1684       C  0.07910401  0.93238205  0.60286672    -0.21400
C1685       C  0.10338154  0.90390293  0.61224301     0.01600
H1686       H  0.05536506  0.94619276  0.55469577     0.15400
H1687       H  0.05911136  0.94642846  0.61947125     0.15400
N1688       N  0.13263252  0.90843834  0.68797780    -0.00900
C1689       C  0.11598802  0.94174046  0.69967593     0.01700
C1690       C  0.14074111  0.96146597  0.71711425    -0.21200
C1691       C  0.17325652  0.94183868  0.71567932    -0.21400
C1692       C  0.16810342  0.91012923  0.69733350     0.01600
H1693       H  0.13583225  0.98834799  0.72913344     0.15400
H1694       H  0.19801021  0.95114026  0.72599734     0.15400
N1695       N  0.19619777  0.88927912  0.59413525    -0.00900
C1696       C  0.21031637  0.92182432  0.57628896     0.01700
C1697       C  0.22986284  0.94388680  0.59674728    -0.21200
C1698       C  0.22526236  0.92737730  0.62820870    -0.21400
C1699       C  0.20470305  0.89427659  0.62632790     0.01600
H1700       H  0.24246091  0.97192784  0.59064493     0.15400
H1701       H  0.23662246  0.93818130  0.65023145     0.15400
N1702       N  0.17657748  0.85734503  0.58278016    -0.00900
C1703       C  0.18614473  0.81947257  0.58424202     0.01700
C1704       C  0.15605490  0.79554745  0.58259752    -0.21200
C1705       C  0.12638279  0.81815795  0.58043889    -0.21400
C1706       C  0.13939099  0.85525992  0.58124626     0.01600
H1707       H  0.15589958  0.76456353  0.58215517     0.15400
H1708       H  0.09823153  0.80804861  0.57988528     0.15400
N1709       N  0.19749977  0.88470694  0.68638681    -0.00900
C1710       C  0.22874246  0.87487246  0.70113097     0.01700
C1711       C  0.24391788  0.84340698  0.68588360    -0.21200
C1712       C  0.22688646  0.84000508  0.65697566    -0.21400
C1713       C  0.20016608  0.86791447  0.65620470     0.01600
H1714       H  0.26985020  0.82997971  0.69094254     0.15400
H1715       H  0.24246073  0.82985151  0.63519167     0.15400
N1716       N  0.11695949  0.87658299  0.67239649    -0.00900
C1717       C  0.11746832  0.83714991  0.68186177     0.01700
C1718       C  0.09435081  0.81821142  0.66269110    -0.21200
C1719       C  0.07982796  0.84435619  0.64126665    -0.21400
C1720       C  0.09620330  0.87943756  0.64486425     0.01600
H1721       H  0.08891567  0.78775727  0.66389410     0.15400
H1722       H  0.06419714  0.83684151  0.62073753     0.15400
N1723       N  0.37140018  0.86482609  0.59802401    -0.00900
C1724       C  0.34334902  0.88433971  0.58416267     0.01700
C1725       C  0.31307210  0.88475758  0.60747572    -0.21200
C1726       C  0.32383794  0.87044921  0.63768769    -0.21400
C1727       C  0.36141693  0.86302365  0.63299365     0.01600
H1728       H  0.28738488  0.89876148  0.60391253     0.15400
H1729       H  0.30851961  0.87485436  0.66164293     0.15400
N1730       N  0.44813631  0.87517007  0.67472802    -0.00900
C1731       C  0.47424821  0.89458173  0.69085049     0.01700
C1732       C  0.49185625  0.86896139  0.71169550    -0.21200
C1733       C  0.47705593  0.83328534  0.70876037    -0.21400
C1734       C  0.44968235  0.83782501  0.68686849     0.01600
H1735       H  0.01436441  0.87547391  0.72677569     0.15400
H1736       H  0.98808070  0.80709934  0.71915339     0.15400
N1737       N  0.44996758  0.84097803  0.57962105    -0.00900
C1738       C  0.47865618  0.86198165  0.56354106     0.01700
C1739       C  0.50304291  0.86829120  0.58760970    -0.21200
C1740       C  0.49070053  0.84812905  0.61710860    -0.21400
C1741       C  0.45792708  0.83095424  0.61152945     0.01600
H1742       H  0.03059748  0.87845226  0.58259186     0.15400
H1743       H  0.50547700  0.84413566  0.63935939     0.15400
N1744       N  0.38346469  0.83132525  0.58089554    -0.00900
C1745       C  0.36341557  0.80105209  0.56997518     0.01700
C1746       C  0.38665008  0.77893925  0.54960481    -0.21200
C1747       C  0.42081974  0.79588757  0.54614128    -0.21400
C1748       C  0.41823436  0.82735540  0.56556112     0.01600
H1749       H  0.37929578  0.75274098  0.53818183     0.15400
H1750       H  0.44573826  0.78396227  0.53400734     0.15400
N1751       N  0.43370470  0.80643837  0.67071732    -0.00900
C1752       C  0.41295794  0.77560380  0.68469569     0.01700
C1753       C  0.40126688  0.75476096  0.65891688    -0.21200
C1754       C  0.41670177  0.77173198  0.62895391    -0.21400
C1755       C  0.43567664  0.80415132  0.63659369     0.01600
H1756       H  0.38794973  0.72674065  0.66164366     0.15400
H1757       H  0.41707178  0.75886377  0.60495911     0.15400
N1758       N  0.38486427  0.87641395  0.65958965    -0.00900
C1759       C  0.37257850  0.90765159  0.67662535     0.01700
C1760       C  0.39102183  0.94056967  0.66301290    -0.21200
C1761       C  0.42101051  0.92786731  0.64400575    -0.21400
C1762       C  0.42072299  0.88889181  0.65201480     0.01600
H1763       H  0.38694966  0.96975039  0.67049748     0.15400
H1764       H  0.44447057  0.94557063  0.63449383     0.15400
N1765       N  0.39318087  0.63328025  0.57672962    -0.00900
C1766       C  0.41800458  0.61513028  0.55421790     0.01700
C1767       C  0.42331297  0.57772520  0.56652284    -0.21200
C1768       C  0.41508931  0.57809491  0.60052210    -0.21400
C1769       C  0.40229529  0.61450017  0.60634792     0.01600
H1770       H  0.44172123  0.55683227  0.55501968     0.15400
H1771       H  0.42628059  0.55814442  0.61870353     0.15400
N1772       N  0.40708796  0.58878993  0.68295194    -0.00900
C1773       C  0.42147214  0.55759485  0.69974353     0.01700
C1774       C  0.39372822  0.53812790  0.72014926    -0.21200
C1775       C  0.36134961  0.55643557  0.71582782    -0.21400
C1776       C  0.37005528  0.58709582  0.69323993     0.01600
H1777       H  0.39647656  0.01177703  0.73534997     0.15400
H1778       H  0.33428013  0.54692451  0.72679074     0.15400
N1779       N  0.33648325  0.56542940  0.59492108    -0.00900
C1780       C  0.33223000  0.52737468  0.58961605     0.01700
C1781       C  0.32558592  0.50688057  0.62027495    -0.21200
C1782       C  0.32563561  0.53294273  0.64517584    -0.21400
C1783       C  0.33230471  0.56889867  0.62919355     0.01600
H1784       H  0.32044437  0.97628080  0.62412956     0.15400
H1785       H  0.31914741  0.52628422  0.67191495     0.15400
N1786       N  0.35377162  0.63143948  0.57149368    -0.00900
C1787       C  0.33447564  0.65516847  0.54971099     0.01700
C1788       C  0.31234288  0.63250653  0.53162903    -0.21200
C1789       C  0.31357221  0.59591629  0.54425515    -0.21400
C1790       C  0.33719492  0.59621312  0.56929254     0.01600
H1791       H  0.29154912  0.64241975  0.51525570     0.15400
H1792       H  0.29518886  0.57290191  0.53889838     0.15400
N1793       N  0.34237460  0.60987940  0.67864084    -0.00900
C1794       C  0.32397376  0.63951708  0.69327889     0.01700
C1795       C  0.30825323  0.65978605  0.66745889    -0.21200
C1796       C  0.30915969  0.63644174  0.64006143    -0.21400
C1797       C  0.33059331  0.60555445  0.64763066     0.01600
H1798       H  0.29137815  0.68494391  0.67080557     0.15400
H1799       H  0.29170960  0.63845172  0.61946684     0.15400
N1800       N  0.42624833  0.62044903  0.66442440    -0.00900
C1801       C  0.44966400  0.64637292  0.67674010     0.01700
C1802       C  0.46222489  0.67288342  0.65098746    -0.21200
C1803       C  0.44380125  0.66571578  0.62331114    -0.21400
C1804       C  0.42133439  0.63407669  0.63211726     0.01600
H1805       H  0.47855331  0.69851618  0.65348320     0.15400
H1806       H  0.44638543  0.68216358  0.59930598     0.15400
N1807       N  0.10391141  0.66345386  0.58386733    -0.00900
C1808       C  0.08080590  0.64126873  0.56566829     0.01700
C1809       C  0.06167669  0.61304298  0.58598250    -0.21200
C1810       C  0.06452314  0.62224344  0.61779082    -0.21400
C1811       C  0.08805384  0.65332417  0.61624548     0.01600
H1812       H  0.04026356  0.59398655  0.57881933     0.15400
H1813       H  0.04553018  0.61249282  0.63902832     0.15400
N1814       N  0.14554425  0.58978319  0.59555781    -0.00900
C1815       C  0.13369356  0.55342003  0.59064334     0.01700
C1816       C  0.12383460  0.53398539  0.62130732    -0.21200
C1817       C  0.13080183  0.55832809  0.64604393    -0.21400
C1818       C  0.14423359  0.59210678  0.62955090     0.01600
H1819       H  0.11772334  0.50362875  0.62518413     0.15400
H1820       H  0.12994693  0.55060912  0.67287079     0.15400
N1821       N  0.09025508  0.62661658  0.68854088    -0.00900
C1822       C  0.06748023  0.60463406  0.71160219     0.01700
C1823       C  0.08422020  0.60161227  0.74147080    -0.21200
C1824       C  0.12103838  0.60954803  0.73341397    -0.21400
C1825       C  0.12371951  0.62202482  0.70020545     0.01600
H1826       H  0.07274712  0.58653365  0.76442789     0.15400
H1827       H  0.14325077  0.60471978  0.74927872     0.15400
N1828       N  0.15746795  0.62885789  0.67937405    -0.00900
C1829       C  0.18838919  0.64516019  0.68853009     0.01700
C1830       C  0.21208064  0.65310197  0.65998850    -0.21200
C1831       C  0.19715532  0.63724302  0.63347844    -0.21400
C1832       C  0.16332451  0.62221276  0.64622109     0.01600
H1833       H  0.23964406  0.66377463  0.65919661     0.15400
H1834       H  0.21177671  0.63275637  0.60907052     0.15400
N1835       N  0.08184617  0.66531629  0.67785980    -0.00900
C1836       C  0.06787141  0.69446766  0.69745151     0.01700
C1837       C  0.05211940  0.72093846  0.67586396    -0.21200
C1838       C  0.06236676  0.71173105  0.64297520    -0.21400
C1839       C  0.08195859  0.67815547  0.64487900     0.01600
H1840       H  0.03929709  0.74761896  0.68296415     0.15400
H1841       H  0.05505716  0.72720553  0.62019954     0.15400
N1842       N  0.14422903  0.65908722  0.57856480    -0.00900
C1843       C  0.16828740  0.68154425  0.55549568     0.01700
C1844       C  0.17801236  0.65916431  0.52832087    -0.21200
C1845       C  0.17229369  0.62173231  0.53949601    -0.21400
C1846       C  0.15468552  0.62248996  0.57169060     0.01600
H1847       H  0.19672493  0.66742878  0.50631457     0.15400
H1848       H  0.18347604  0.59830505  0.52579237     0.15400
O1849       O  0.23144152  0.77967290  0.60377173    -0.71800
O1850       O  0.29850354  0.69654077  0.58797114    -0.71900
O1851       O  0.30744603  0.77183714  0.59982191    -0.71900
O1852       O  0.21849189  0.70584631  0.59129546    -0.72000
O1853       O  0.22272935  0.72281021  0.53665120    -0.71900
O1854       O  0.30918199  0.78725862  0.54461019    -0.71900
O1855       O  0.30101930  0.71199032  0.53301215    -0.71900
O1856       O  0.23549062  0.79726167  0.54885071    -0.71900
Ni1857     Ni  0.26390304  0.73784287  0.59768461     1.25400
Ni1858     Ni  0.26726742  0.75509790  0.53892396     1.25400
C1859       C  0.22181794  0.80131879  0.57919854     0.90300
C1860       C  0.31225663  0.69094053  0.55779667     0.90300
C1861       C  0.32335033  0.78946631  0.57290066     0.90300
C1862       C  0.20418494  0.70520521  0.56240563     0.90500
O1863       O  0.13918533  0.79464689  0.79549131    -0.71800
O1864       O  0.07386310  0.73708811  0.74434987    -0.71900
O1865       O  0.10395238  0.73045784  0.80682375    -0.71900
O1866       O  0.10528496  0.81092256  0.73811736    -0.72000
O1867       O  0.15293951  0.78516825  0.70875255    -0.71900
O1868       O  0.15358914  0.70295312  0.78158236    -0.71900
O1869       O  0.12409326  0.71042971  0.71960398    -0.71900
O1870       O  0.18768713  0.76829561  0.76746629    -0.71900
Ni1871     Ni  0.10367592  0.76918497  0.77192365     1.25400
Ni1872     Ni  0.15628322  0.74086724  0.74303546     1.25400
C1873       C  0.17408548  0.78787716  0.79127015     0.90300
C1874       C  0.08905127  0.71331197  0.72320048     0.90300
C1875       C  0.12908166  0.70514384  0.80737718     0.90300
C1876       C  0.12854831  0.81251919  0.71209008     0.90500
O1877       O  0.21467479  0.59869234  0.72417407    -0.71800
O1878       O  0.27495328  0.57380526  0.79620028    -0.71900
O1879       O  0.20133068  0.57063897  0.78892425    -0.71900
O1880       O  0.28728430  0.59726020  0.73057873    -0.72000
O1881       O  0.28357459  0.65875814  0.74255969    -0.71900
O1882       O  0.19780866  0.63000725  0.80702662    -0.71900
O1883       O  0.27356191  0.63509547  0.80988903    -0.71900
O1884       O  0.20966012  0.65868211  0.74102432    -0.71900
Ni1885     Ni  0.24452504  0.58296356  0.75980414     1.25400
Ni1886     Ni  0.24084295  0.64781247  0.77620217     1.25400
C1887       C  0.20411021  0.63355137  0.71991786     0.90300
C1888       C  0.28713612  0.60163230  0.81214784     0.90300
C1889       C  0.18470449  0.59539965  0.80691116     0.90300
C1890       C  0.29851042  0.63185785  0.72486672     0.90500
O1891       O  0.47059860  0.68255644  0.72158821    -0.71800
O1892       O  0.44510317  0.74374469  0.79969504    -0.71900
O1893       O  0.47295174  0.67285040  0.78972248    -0.71900
O1894       O  0.44721791  0.75495990  0.73027021    -0.72000
O1895       O  0.39019730  0.73104823  0.73023772    -0.71900
O1896       O  0.41457600  0.65071823  0.79405130    -0.71900
O1897       O  0.38762932  0.72070758  0.79992345    -0.71900
O1898       O  0.41324035  0.65801957  0.72679539    -0.71900
Ni1899     Ni  0.46115031  0.71440215  0.76040014     1.25400
Ni1900     Ni  0.39933616  0.68957638  0.76305104     1.25400
C1901       C  0.44527369  0.66099001  0.71103930     0.90300
C1902       C  0.41117115  0.74172480  0.81270015     0.90300
C1903       C  0.44817679  0.64859199  0.80150517     0.90300
C1904       C  0.41599537  0.75485319  0.71798694     0.90500
O1905       O  0.34068867  0.88066056  0.73144833    -0.71800
O1906       O  0.26382023  0.90215174  0.80479557    -0.71900
O1907       O  0.26784799  0.87324673  0.74304200    -0.71900
O1908       O  0.33819894  0.90146292  0.79925885    -0.72000
O1909       O  0.33725157  0.96253522  0.78111051    -0.71900
O1910       O  0.26107634  0.93217944  0.72108257    -0.71900
O1911       O  0.26338534  0.96218393  0.78272583    -0.71900
O1912       O  0.33561400  0.94192475  0.71441338    -0.71900
Ni1913     Ni  0.30310392  0.88731296  0.77053666     1.25400
Ni1914     Ni  0.29955063  0.95198422  0.74907966     1.25400
C1915       C  0.34828873  0.90889457  0.70913078     0.90300
C1916       C  0.25010661  0.93638521  0.80372453     0.90300
C1917       C  0.25195177  0.89594743  0.72351400     0.90300
C1918       C  0.34830709  0.93560675  0.80179216     0.90500
O1919       O  0.32264135  0.69313349  0.90674272    -0.71800
O1920       O  0.25476626  0.78275382  0.90313764    -0.71900
O1921       O  0.33067541  0.77601346  0.90636118    -0.71900
O1922       O  0.24995739  0.70551207  0.89931343    -0.72000
O1923       O  0.24164269  0.69900262  0.95578297    -0.71900
O1924       O  0.32015721  0.77199920  0.96249415    -0.71900
O1925       O  0.24614589  0.77477248  0.95924440    -0.71900
O1926       O  0.31378844  0.69250116  0.96276878    -0.71900
Ni1927     Ni  0.29039052  0.73976356  0.90170650     1.25400
Ni1928     Ni  0.28035803  0.73462190  0.96184888     1.25400
C1929       C  0.32662181  0.67615573  0.93625448     0.90300
C1930       C  0.23799910  0.79181778  0.93174942     0.90300
C1931       C  0.33767846  0.78740256  0.93535792     0.90300
C1932       C  0.23372461  0.68989397  0.92633187     0.90500
O1933       O  0.06900664  0.97589975  0.66954172    -0.71800
O1934       O  0.47708819  0.53446191  0.66844099    -0.71900
O1935       O  0.04849721  0.55428517  0.67426646    -0.71900
O1936       O  0.49685484  0.95658456  0.66422381    -0.72000
O1937       O  0.48706251  0.94945902  0.72029873    -0.71900
O1938       O  0.03954363  0.54331785  0.72991306    -0.71900
O1939       O  0.46952594  0.52504455  0.72456214    -0.71900
O1940       O  0.05889081  0.96605201  0.72516316    -0.71900
Ni1941     Ni  0.02324720  0.00561382  0.66695216     1.25400
Ni1942     Ni  0.01358795  0.99570679  0.72671898     1.25400
C1943       C  0.07832815  0.95968756  0.69734954     0.90300
C1944       C  0.45875529  0.54002660  0.69697082     0.90300
C1945       C  0.05052632  0.56598828  0.70432383     0.90300
C1946       C  0.48452828  0.93636401  0.69107405     0.90500
O1947       O  0.48262283  0.49391653  0.86560239    -0.71800
O1948       O  0.07980218  0.96015591  0.86244208    -0.71900
O1949       O  0.51724332  0.93075053  0.84904701    -0.71900
O1950       O  0.04675786  0.52307085  0.87416080    -0.72000
O1951       O  0.04049506  0.50662608  0.92936811    -0.71900
O1952       O  0.49834001  0.91273388  0.90273668    -0.71900
O1953       O  0.06690525  0.93527343  0.91534860    -0.71900
O1954       O  0.47288332  0.48030607  0.92109069    -0.71900
Ni1955     Ni  0.03200711  0.97779498  0.86107004     1.25400
Ni1956     Ni  0.01981694  0.95779247  0.91975525     1.25400
C1957       C  0.46217444  0.49380307  0.89341226     0.90300
C1958       C  0.08608435  0.93694167  0.88684260     0.90300
C1959       C  0.50042012  0.90785095  0.87072480     0.90300
C1960       C  0.04789725  0.53112174  0.90428634     0.90500
O1961       O  0.21243153  0.98760898  0.97059918    -0.71800
O1962       O  0.17738183  0.53757873  0.54769358    -0.71900
O1963       O  0.21524141  0.97331939  0.53586493    -0.71900
O1964       O  0.17135506  0.55009295  0.98128567    -0.72000
O1965       O  0.11995361  0.51478020  0.98382971    -0.71900
O1966       O  0.16287214  0.93916048  0.54067513    -0.71900
O1967       O  0.12379595  0.50550972  0.55120733    -0.71900
O1968       O  0.16097134  0.95200533  0.97266887    -0.71900
Ni1969     Ni  0.19575662  0.01346193  0.50885627     1.25400
Ni1970     Ni  0.13980847  0.97649077  0.01243775     1.25400
C1971       C  0.19373746  0.96110707  0.95926450     0.90300
C1972       C  0.14475327  0.53174353  0.56118169     0.90300
C1973       C  0.19593210  0.94399141  0.54805365     0.90300
C1974       C  0.14071299  0.54177354  0.96970471     0.90500
O1975       O  0.05320925  0.64065877  0.95163554    -0.71800
O1976       O  0.47681972  0.60884446  0.52174137    -0.71900
O1977       O  0.47715651  0.62640318  0.95779834    -0.71900
O1978       O  0.05306115  0.62309760  0.51771600    -0.72000
O1979       O  0.03945836  0.68206821  0.53299722    -0.71900
O1980       O  0.46835122  0.68849106  0.96374233    -0.71900
O1981       O  0.46076079  0.66886794  0.53083228    -0.71900
O1982       O  0.04338626  0.70112710  0.96412277    -0.71900
Ni1983     Ni  0.01555636  0.62293485  0.98691762     1.25400
Ni1984     Ni  0.00283840  0.68762091  0.99862587     1.25400
C1985       C  0.06136845  0.67626899  0.94625641     0.90300
C1986       C  0.45326965  0.63258527  0.53479122     0.90300
C1987       C  0.46052816  0.65709820  0.95031152     0.90300
C1988       C  0.05902313  0.65135175  0.53588756     0.90500
O1989       O  0.30407349  0.49233285  0.54808847    -0.71800
O1990       O  0.31072695  0.92605367  0.97225477    -0.71900
O1991       O  0.31269259  0.91685765  0.54083615    -0.71900
O1992       O  0.29977328  0.50402705  0.98007626    -0.72000
O1993       O  0.36015497  0.51365531  0.96888649    -0.71900
O1994       O  0.37350222  0.92736922  0.53738246    -0.71900
O1995       O  0.37193579  0.93248071  0.96684721    -0.71900
O1996       O  0.36447484  0.50526606  0.53867717    -0.71900
Ni1997     Ni  0.30492927  0.95958616  0.51018390     1.25400
Ni1998     Ni  0.36985272  0.97002822  0.50233819     1.25400
C1999       C  0.33349928  0.50861105  0.55657068     0.90300
C2000       C  0.34244285  0.91684572  0.95759788     0.90300
C2001       C  0.34423186  0.90941738  0.55160386     0.90300
C2002       C  0.32651146  0.52392465  0.96423819     0.90500
O2003       O  0.50483809  0.88158427  0.50643513    -0.71800
O2004       O  0.08856914  0.86216953  0.93960494    -0.71900
O2005       O  0.51188426  0.85144634  0.94256003    -0.71900
O2006       O  0.07721074  0.89769569  0.50095387    -0.72000
O2007       O  0.08250982  0.84151744  0.52878470    -0.71900
O2008       O  0.02302800  0.79309960  0.96400205    -0.71900
O2009       O  0.09738426  0.80675755  0.96736956    -0.71900
O2010       O  0.01096041  0.82156945  0.52696557    -0.71900
Ni2011     Ni  0.04543328  0.87516193  0.97106512     1.25400
Ni2012     Ni  0.05396973  0.81373097  0.99749496     1.25400
C2013       C  0.49646862  0.85450958  0.52938933     0.90300
C2014       C  0.10643940  0.83032179  0.94237375     0.90300
C2015       C  0.50654662  0.81519914  0.94288507     0.90300
C2016       C  0.08681656  0.87847439  0.52691801     0.90500
N2017       N  0.83410021  0.07996060  0.41467340    -0.00900
C2018       C  0.81443424  0.05524104  0.43837241     0.01700
C2019       C  0.78103761  0.04789614  0.42559538    -0.21200
C2020       C  0.78147584  0.06343401  0.39314709    -0.21400
C2021       C  0.81478228  0.08214971  0.38660159     0.01600
H2022       H  0.75973779  0.02915959  0.43754080     0.15400
H2023       H  0.76185543  0.05711620  0.37511345     0.15400
N2024       N  0.91854409  0.04090472  0.37416159    -0.00900
C2025       C  0.92567622  0.00897729  0.39257927     0.01700
C2026       C  0.89405310  0.98710163  0.40045220    -0.21200
C2027       C  0.86614807  0.00624962  0.38567183    -0.21400
C2028       C  0.88258488  0.03882519  0.36943372     0.01600
H2029       H  0.89285284  0.45800797  0.41084679     0.15400
H2030       H  0.83821107  0.99574958  0.38406105     0.15400
N2031       N  0.92432879  0.12045042  0.41168482    -0.00900
C2032       C  0.93436199  0.15471531  0.42393687     0.01700
C2033       C  0.92806503  0.18472660  0.40202060    -0.21200
C2034       C  0.92114535  0.16845873  0.37265242    -0.21400
C2035       C  0.92269907  0.12887775  0.37798746     0.01600
H2036       H  0.43247214  0.21451492  0.40595469     0.15400
H2037       H  0.92052049  0.18431974  0.34922173     0.15400
N2038       N  0.85833686  0.11073729  0.42091726    -0.00900
C2039       C  0.84668574  0.13814539  0.44288036     0.01700
C2040       C  0.86575466  0.13266984  0.47131054    -0.21200
C2041       C  0.89077478  0.10392105  0.46536923    -0.21400
C2042       C  0.89240305  0.10114772  0.43054015     0.01600
H2043       H  0.86808844  0.15311752  0.49039306     0.15400
H2044       H  0.91377414  0.09906600  0.48053595     0.15400
N2045       N  0.94027240  0.10466141  0.35244767    -0.00900
C2046       C  0.95872634  0.11632497  0.32235996     0.01700
C2047       C  0.97562981  0.08632266  0.30643400    -0.21200
C2048       C  0.96535827  0.05436956  0.32609108    -0.21400
C2049       C  0.94466557  0.06616607  0.35478481     0.01600
H2050       H  0.98766439  0.08666701  0.28042988     0.15400
H2051       H  0.96690198  0.02589439  0.31670990     0.15400
N2052       N  0.83371392  0.08307757  0.35313741    -0.00900
C2053       C  0.82409723  0.09776722  0.32296060     0.01700
C2054       C  0.85180893  0.09158878  0.29770212    -0.21200
C2055       C  0.87750638  0.06925197  0.31185007    -0.21400
C2056       C  0.86542445  0.06446103  0.34564496     0.01600
H2057       H  0.85083076  0.09821388  0.27091548     0.15400
H2058       H  0.90060254  0.05565827  0.29833934     0.15400
N2059       N  0.61527054  0.17029093  0.39787298    -0.00900
C2060       C  0.59527470  0.18930066  0.42341528     0.01700
C2061       C  0.61757149  0.21484224  0.43706724    -0.21200
C2062       C  0.65224998  0.21021104  0.42256391    -0.21400
C2063       C  0.65176083  0.17787709  0.40363984     0.01600
H2064       H  0.61042228  0.23190540  0.45864235     0.15400
H2065       H  0.67541035  0.22378752  0.43240976     0.15400
N2066       N  0.57172318  0.09461780  0.38555385    -0.00900
C2067       C  0.54896607  0.07141910  0.40689079     0.01700
C2068       C  0.51467254  0.08812601  0.41124726    -0.21200
C2069       C  0.51738072  0.12371066  0.39480591    -0.21400
C2070       C  0.55317791  0.12758330  0.38229326     0.01600
H2071       H  0.48896639  0.07339489  0.42034051     0.15400
H2072       H  0.49595651  0.14364768  0.38963596     0.15400
N2073       N  0.64573810  0.08385349  0.41412131    -0.00900
C2074       C  0.63567800  0.05122521  0.43392470     0.01700
C2075       C  0.63640526  0.01951672  0.41464681    -0.21200
C2076       C  0.64911248  0.03167593  0.38307431    -0.21400
C2077       C  0.65086550  0.07127865  0.38260851     0.01600
H2078       H  0.63111400  0.98984610  0.42312610     0.15400
H2079       H  0.64885052  0.01477742  0.36138583     0.15400
N2080       N  0.67830375  0.14814712  0.41349322    -0.00900
C2081       C  0.71287765  0.15477764  0.42422931     0.01700
C2082       C  0.73002542  0.12232814  0.43492483    -0.21200
C2083       C  0.70631164  0.09378471  0.43147979    -0.21400
C2084       C  0.67410554  0.10947932  0.42195009     0.01600
H2085       H  0.75754158  0.11994815  0.44342713     0.15400
H2086       H  0.71170689  0.06371182  0.43408746     0.15400
N2087       N  0.63460469  0.09091415  0.35589722    -0.00900
C2088       C  0.64776461  0.08392371  0.32385115     0.01700
C2089       C  0.62095285  0.06560406  0.30775355    -0.21200
C2090       C  0.58844741  0.06756035  0.32822062    -0.21400
C2091       C  0.59779451  0.08326276  0.35771348     0.01600
H2092       H  0.62431909  0.05338058  0.28326081     0.15400
H2093       H  0.56115751  0.05977725  0.32163176     0.15400
N2094       N  0.60179763  0.17264549  0.36414857    -0.00900
C2095       C  0.62109572  0.17173859  0.33204707     0.01700
C2096       C  0.59794994  0.15398145  0.31115141    -0.21200
C2097       C  0.56321079  0.15201349  0.32681835    -0.21400
C2098       C  0.56753666  0.15853744  0.35987028     0.01600
H2099       H  0.60349694  0.14929030  0.28454750     0.15400
H2100       H  0.54011081  0.13759396  0.31712630     0.15400
N2101       N  0.69586771  0.41602744  0.41170283    -0.00900
C2102       C  0.71156886  0.44244372  0.42992558     0.01700
C2103       C  0.74570246  0.45408398  0.41505522    -0.21200
C2104       C  0.74906624  0.43949283  0.38418923    -0.21400
C2105       C  0.71651895  0.41961034  0.38094540     0.01600
H2106       H  0.76594350  0.47196258  0.42483758     0.15400
H2107       H  0.76983791  0.44942307  0.36438000     0.15400
N2108       N  0.63798337  0.40522074  0.35898178    -0.00900
C2109       C  0.60537304  0.40395980  0.37705437     0.01700
C2110       C  0.58527462  0.37231006  0.36939154    -0.21200
C2111       C  0.60657939  0.35396617  0.34542929    -0.21400
C2112       C  0.63937504  0.37455260  0.34064093     0.01600
H2113       H  0.55753035  0.36406180  0.37932552     0.15400
H2114       H  0.59921471  0.32753976  0.33475615     0.15400
N2115       N  0.66458510  0.32702981  0.39767967    -0.00900
C2116       C  0.63079827  0.31498132  0.41337318     0.01700
C2117       C  0.61755537  0.28583842  0.39563541    -0.21200
C2118       C  0.64372583  0.27890402  0.36957868    -0.21400
C2119       C  0.67109420  0.30658160  0.36948439     0.01600
H2120       H  0.59057153  0.27216588  0.40015373     0.15400
H2121       H  0.64020998  0.25907573  0.35041309     0.15400
N2122       N  0.69331872  0.34519180  0.41308605    -0.00900
C2123       C  0.71065508  0.32357577  0.43656568     0.01700
C2124       C  0.70408238  0.33811075  0.46798819    -0.21200
C2125       C  0.68721960  0.37214251  0.46326462    -0.21400
C2126       C  0.68526363  0.37860828  0.42839718     0.01600
H2127       H  0.71441189  0.32755287  0.49143357     0.15400
H2128       H  0.68432968  0.39174805  0.48320902     0.15400
N2129       N  0.68635911  0.32552937  0.33789931    -0.00900
C2130       C  0.69942506  0.31041022  0.30867754     0.01700
C2131       C  0.71016871  0.33980934  0.28531179    -0.21200
C2132       C  0.69037322  0.37089966  0.29542718    -0.21400
C2133       C  0.67451059  0.35994068  0.32708563     0.01600
H2134       H  0.71659838  0.33514357  0.25882320     0.15400
H2135       H  0.68232895  0.39455017  0.27902742     0.15400
N2136       N  0.69899333  0.42969082  0.35068452    -0.00900
C2137       C  0.71524509  0.44726045  0.32209808     0.01700
C2138       C  0.68961966  0.46839433  0.30544855    -0.21200
C2139       C  0.65609787  0.46066730  0.32294982    -0.21400
C2140       C  0.66254225  0.43647799  0.35056215     0.01600
H2141       H  0.69379707  0.48275222  0.28053768     0.15400
H2142       H  0.62966301  0.46656936  0.31320676     0.22600
N2143       N  0.94483267  0.38020835  0.35181100    -0.00900
C2144       C  0.98118904  0.37803666  0.35640108     0.01700
C2145       C  0.99907720  0.35408661  0.33383652    -0.21200
C2146       C  0.97215535  0.33880643  0.31657784    -0.21400
C2147       C  0.93895303  0.35341267  0.33005346     0.01600
H2148       H  0.52843201  0.34889894  0.32967987     0.15400
H2149       H  0.97578391  0.31518917  0.30003573     0.15400
N2150       N  0.87363829  0.37842089  0.40756236    -0.00900
C2151       C  0.84321698  0.39005317  0.42814028     0.01700
C2152       C  0.81240184  0.38879882  0.41055472    -0.21200
C2153       C  0.82489116  0.38967596  0.37697356    -0.21400
C2154       C  0.86306733  0.38841807  0.37553695     0.01600
H2155       H  0.78440321  0.39293953  0.42099085     0.15400
H2156       H  0.80806607  0.39655021  0.35654413     0.15400
N2157       N  0.95043929  0.31080712  0.40498804    -0.00900
C2158       C  0.98384908  0.29856093  0.41651803     0.01700
C2159       C  0.99812396  0.26931663  0.39731027    -0.21200
C2160       C  0.97435073  0.26311641  0.37299359    -0.21400
C2161       C  0.94494418  0.28767654  0.37833066     0.01600
H2162       H  0.52414781  0.25489241  0.39984632     0.15400
H2163       H  0.97851682  0.24297677  0.35330768     0.15400
N2164       N  0.91646885  0.29281395  0.35454830    -0.00900
C2165       C  0.89557340  0.26733449  0.33929264     0.01700
C2166       C  0.86628924  0.28741146  0.32654720    -0.21200
C2167       C  0.87783225  0.32475140  0.32269725    -0.21400
C2168       C  0.90908165  0.32666457  0.33939963     0.01600
H2169       H  0.84627500  0.27600932  0.31083329     0.15400
H2170       H  0.86956796  0.34492431  0.30360542     0.15400
N2171       N  0.88715804  0.33960453  0.41376140    -0.00900
C2172       C  0.86769599  0.31678447  0.43884716     0.01700
C2173       C  0.88569590  0.31597223  0.46760437    -0.21200
C2174       C  0.92048756  0.33001163  0.45828658    -0.21400
C2175       C  0.92287224  0.33534114  0.42316026     0.01600
H2176       H  0.87682410  0.30000219  0.49065793     0.15400
H2177       H  0.94293552  0.32474186  0.47395418     0.15400
N2178       N  0.88614614  0.41301099  0.35038722    -0.00900
C2179       C  0.87635015  0.44102640  0.32661268     0.01700
C2180       C  0.90711087  0.46285223  0.31502529    -0.21200
C2181       C  0.93674241  0.44556062  0.32830723    -0.21400
C2182       C  0.92354834  0.41475987  0.34961632     0.01600
H2183       H  0.90923610  0.48340309  0.29351713     0.15400
H2184       H  0.96496028  0.45046188  0.31778185     0.15400
N2185       N  0.61557556  0.38709252  0.08302845    -0.00900
C2186       C  0.59667573  0.40055370  0.05698104     0.01700
C2187       C  0.57624382  0.43145373  0.06818973    -0.21200
C2188       C  0.57909974  0.43237842  0.10286845    -0.21400
C2189       C  0.60337908  0.40390093  0.11224425     0.01600
H2190       H  0.55535871  0.44618658  0.05469841     0.15400
H2191       H  0.55910658  0.44642391  0.11947338     0.15400
N2192       N  0.63263337  0.40843734  0.18797711    -0.00900
C2193       C  0.61598844  0.44173819  0.19967752     0.01700
C2194       C  0.64074100  0.46146261  0.21711730    -0.21200
C2195       C  0.67325712  0.44183586  0.21568095    -0.21400
C2196       C  0.66810415  0.41012807  0.19733263     0.01600
H2197       H  0.63583171  0.48834291  0.22913838     0.15400
H2198       H  0.69800950  0.45113642  0.22600001     0.15400
N2199       N  0.69619752  0.38927582  0.09413419    -0.00900
C2200       C  0.71031676  0.42182029  0.07628734     0.01700
C2201       C  0.72986431  0.44388295  0.09674496    -0.21200
C2202       C  0.72526415  0.42737351  0.12820682    -0.21400
C2203       C  0.70470402  0.39427307  0.12632656     0.01600
H2204       H  0.74246254  0.47192304  0.09064221     0.15400
H2205       H  0.73662443  0.43817758  0.15022902     0.15400
N2206       N  0.67657556  0.35734215  0.08277989    -0.00900
C2207       C  0.68614270  0.31946986  0.08423988     0.01700
C2208       C  0.65605245  0.29554456  0.08259669    -0.21200
C2209       C  0.62637981  0.31815554  0.08044056    -0.21400
C2210       C  0.63938873  0.35525767  0.08124779     0.01600
H2211       H  0.65589687  0.26456132  0.08215393     0.15400
H2212       H  0.59822882  0.30804646  0.07988793     0.15400
N2213       N  0.69750023  0.38470554  0.18638566    -0.00900
C2214       C  0.72874199  0.37487058  0.20113057     0.01700
C2215       C  0.74391675  0.34340383  0.18588461    -0.21200
C2216       C  0.72688570  0.34000144  0.15697630    -0.21400
C2217       C  0.70016610  0.36791186  0.15620413     0.01600
H2218       H  0.76984804  0.32997579  0.19094476     0.15400
H2219       H  0.74245993  0.32984663  0.13519315     0.15400
N2220       N  0.61695996  0.37658179  0.17239677    -0.00900
C2221       C  0.61746889  0.33714893  0.18186247     0.01700
C2222       C  0.59434986  0.31820990  0.16269351    -0.21200
C2223       C  0.57982649  0.34435440  0.14126918    -0.21400
C2224       C  0.59620235  0.37943568  0.14486546     0.01600
H2225       H  0.58891386  0.28775613  0.16389778     0.15400
H2226       H  0.56419486  0.33683911  0.12074070     0.15400
N2227       N  0.87140055  0.36482579  0.09802533    -0.00900
C2228       C  0.84334864  0.38433906  0.08416462     0.01700
C2229       C  0.81307149  0.38475266  0.10747755    -0.21200
C2230       C  0.82383800  0.37044382  0.13768901    -0.21400
C2231       C  0.86141751  0.36302190  0.13299506     0.01600
H2232       H  0.78738250  0.39875421  0.10391455     0.15400
H2233       H  0.80851924  0.37484673  0.16164482     0.15400
N2234       N  0.94813435  0.37516994  0.17473368    -0.00900
C2235       C  0.97424498  0.39458161  0.19085769     0.01700
C2236       C  0.99185009  0.36896154  0.21170535    -0.21200
C2237       C  0.97704936  0.33328575  0.20877021    -0.21400
C2238       C  0.94967862  0.33782513  0.18687534     0.01600
H2239       H  0.51435960  0.37547140  0.22678175     0.15400
H2240       H  0.48807217  0.30709777  0.21916188     0.15400
N2241       N  0.94996717  0.34097533  0.07962645    -0.00900
C2242       C  0.97865816  0.36197624  0.06354702     0.01700
C2243       C  0.00304442  0.36828345  0.08761629    -0.21200
C2244       C  0.99069894  0.34812411  0.11711557    -0.21400
C2245       C  0.95792414  0.33095220  0.11153587     0.01600
H2246       H  0.53060155  0.37843606  0.08259765     0.15400
H2247       H  0.00547430  0.34412957  0.13936722     0.15400
N2248       N  0.88346425  0.33132494  0.08089649    -0.00900
C2249       C  0.86341473  0.30105315  0.06997371     0.01700
C2250       C  0.88664998  0.27894001  0.04960420    -0.21200
C2251       C  0.92082045  0.29588639  0.04614404    -0.21400
C2252       C  0.91823479  0.32735351  0.06556456     0.01600
H2253       H  0.87929576  0.25274239  0.03818027     0.15400
H2254       H  0.94573946  0.28396006  0.03401148     0.15400
N2255       N  0.93370049  0.30643828  0.17072444    -0.00900
C2256       C  0.91295035  0.27560626  0.18470312     0.01700
C2257       C  0.90125428  0.25476619  0.15892449    -0.21200
C2258       C  0.91669031  0.27173606  0.12896139    -0.21400
C2259       C  0.93567068  0.30415196  0.13660068     0.01600
H2260       H  0.88793397  0.22674802  0.16165103     0.15400
H2261       H  0.91705720  0.25886843  0.10496654     0.15400
N2262       N  0.88486352  0.37641384  0.15959156    -0.00900
C2263       C  0.87257619  0.40765164  0.17662608     0.01700
C2264       C  0.89102020  0.44056959  0.16301438    -0.21200
C2265       C  0.92101053  0.42786723  0.14400940    -0.21400
C2266       C  0.92072252  0.38889171  0.15201869     0.01600
H2267       H  0.88694737  0.46975033  0.17049851     0.15400
H2268       H  0.94447055  0.44557056  0.13449855     0.15400
N2269       N  0.89317916  0.13327872  0.07673144    -0.00900
C2270       C  0.91800396  0.11512951  0.05422029     0.01700
C2271       C  0.92331365  0.07772440  0.06652536    -0.21200
C2272       C  0.91508890  0.07809462  0.10052460    -0.21400
C2273       C  0.90229331  0.11449920  0.10635004     0.01600
H2274       H  0.94172266  0.05683267  0.05502320     0.15400
H2275       H  0.92627995  0.05814446  0.11870659     0.15400
N2276       N  0.90708659  0.08878834  0.18295372    -0.00900
C2277       C  0.92147202  0.05759393  0.19974578     0.01700
C2278       C  0.89372909  0.03812675  0.22015203    -0.21200
C2279       C  0.86134944  0.05643229  0.21583082    -0.21400
C2280       C  0.87005393  0.08709225  0.19324232     0.01600
H2281       H  0.89647513  0.51177826  0.23534848     0.15400
H2282       H  0.83428054  0.04692026  0.22679370     0.15400
N2283       N  0.83648312  0.06542621  0.09492261    -0.00900
C2284       C  0.83223019  0.02737154  0.08961722     0.01700
C2285       C  0.82558625  0.00687697  0.12027578    -0.21200
C2286       C  0.82563581  0.03293853  0.14517722    -0.21400
C2287       C  0.83230432  0.06889490  0.12919534     0.01600
H2288       H  0.82044240  0.47628391  0.12413016     0.15400
H2289       H  0.81914807  0.02627935  0.17191622     0.15400
N2290       N  0.85377001  0.13143675  0.07149498    -0.00900
C2291       C  0.83447362  0.15516530  0.04971243     0.01700
C2292       C  0.81234048  0.13250314  0.03163109    -0.21200
C2293       C  0.81357008  0.09591286  0.04425740    -0.21400
C2294       C  0.83719376  0.09621009  0.06929435     0.01600
H2295       H  0.79154686  0.14241617  0.01525755     0.15400
H2296       H  0.79518685  0.07289873  0.03890114     0.15400
N2297       N  0.84237251  0.10987460  0.17864360    -0.00900
C2298       C  0.82397223  0.13951249  0.19328160     0.01700
C2299       C  0.80825290  0.15978225  0.16746133    -0.21200
C2300       C  0.80915992  0.13643852  0.14006336    -0.21400
C2301       C  0.83059230  0.10555039  0.14763294     0.01600
H2302       H  0.79137880  0.18494087  0.17080774     0.15400
H2303       H  0.79171121  0.13844977  0.11946774     0.15400
N2304       N  0.92624515  0.12044816  0.16442690    -0.00900
C2305       C  0.94965892  0.14637406  0.17674306     0.01700
C2306       C  0.96221660  0.17288699  0.15099149    -0.21200
C2307       C  0.94379322  0.16571894  0.12331512    -0.21400
C2308       C  0.92132997  0.13407701  0.13212012     0.01600
H2309       H  0.97854264  0.19852128  0.15348809     0.15400
H2310       H  0.94637570  0.18216782  0.09931070     0.15400
N2311       N  0.60390992  0.16345556  0.08386892    -0.00900
C2312       C  0.58080398  0.14127097  0.06567005     0.01700
C2313       C  0.56167359  0.11304589  0.08598408    -0.21200
C2314       C  0.56452038  0.12224596  0.11779242    -0.21400
C2315       C  0.58805221  0.15332598  0.11624691     0.01600
H2316       H  0.54026003  0.09399032  0.07882081     0.15400
H2317       H  0.54552690  0.11249619  0.13902949     0.15400
N2318       N  0.64554176  0.08978440  0.09555797    -0.00900
C2319       C  0.63369007  0.05342204  0.09064325     0.01700
C2320       C  0.62383068  0.03398657  0.12130710    -0.21200
C2321       C  0.63079926  0.05832917  0.14604376    -0.21400
C2322       C  0.64423184  0.09210763  0.12955119     0.01600
H2323       H  0.61771934  0.00363117  0.12518316     0.15400
H2324       H  0.62994454  0.05060962  0.17287090     0.15400
N2325       N  0.59025528  0.12661821  0.18854112    -0.00900
C2326       C  0.56748031  0.10463541  0.21160210     0.01700
C2327       C  0.58422017  0.10161343  0.24147037    -0.21200
C2328       C  0.62103861  0.10954913  0.23341444    -0.21400
C2329       C  0.62371949  0.12202648  0.20020567     0.01600
H2330       H  0.57274613  0.08653487  0.26442761     0.15400
H2331       H  0.64325002  0.10472061  0.24927910     0.15400
N2332       N  0.65746795  0.12885874  0.17937401    -0.00900
C2333       C  0.68838977  0.14515976  0.18853013     0.01700
C2334       C  0.71208152  0.15309980  0.15998864    -0.21200
C2335       C  0.69715619  0.13724117  0.13347823    -0.21400
C2336       C  0.66332441  0.12221264  0.14622126     0.01600
H2337       H  0.73964595  0.16377148  0.15919694     0.15400
H2338       H  0.71177672  0.13275424  0.10907089     0.15400
N2339       N  0.58184596  0.16531804  0.17786063    -0.00900
C2340       C  0.56786993  0.19446822  0.19745301     0.01700
C2341       C  0.55211534  0.22093739  0.17586618    -0.21200
C2342       C  0.56236193  0.21173132  0.14297694    -0.21400
C2343       C  0.58195672  0.17815720  0.14488024     0.01600
H2344       H  0.53929151  0.24761796  0.18296710     0.15400
H2345       H  0.55505000  0.22720451  0.12020212     0.15400
N2346       N  0.64422761  0.15908851  0.07856585    -0.00900
C2347       C  0.66828549  0.18154492  0.05549638     0.01700
C2348       C  0.67800852  0.15916575  0.02832036    -0.21200
C2349       C  0.67228945  0.12173353  0.03949554    -0.21400
C2350       C  0.65468327  0.12249135  0.07169112     0.01600
H2351       H  0.69671941  0.16742992  0.00631405     0.15400
H2352       H  0.68346984  0.09830677  0.02579092     0.15400
O2353       O  0.73144015  0.27967141  0.10377042    -0.71800
O2354       O  0.79850277  0.19653940  0.08797176    -0.71900
O2355       O  0.80744522  0.27183701  0.09982075    -0.71900
O2356       O  0.71849106  0.20584516  0.09129559    -0.72000
O2357       O  0.72272895  0.22280778  0.03665110    -0.71900
O2358       O  0.80918141  0.28725668  0.04460879    -0.71900
O2359       O  0.80101857  0.21198756  0.03301252    -0.71900
O2360       O  0.73548949  0.29725902  0.04884925    -0.71900
Ni2361     Ni  0.76390225  0.23784186  0.09768417     1.25400
Ni2362     Ni  0.76726682  0.25509540  0.03892335     1.25400
C2363       C  0.72181625  0.30131635  0.07919685     0.90300
C2364       C  0.81225562  0.19093820  0.05779741     0.90300
C2365       C  0.82334951  0.28946587  0.07289925     0.90300
C2366       C  0.70418411  0.20520407  0.06240572     0.90500
O2367       O  0.63918704  0.29464638  0.29549082    -0.71800
O2368       O  0.57386289  0.23708950  0.24435060    -0.71900
O2369       O  0.60395301  0.23045887  0.30682377    -0.71900
O2370       O  0.60528632  0.31092288  0.23811774    -0.72000
O2371       O  0.65294089  0.28516829  0.20875306    -0.71900
O2372       O  0.65358819  0.20295189  0.28158176    -0.71900
O2373       O  0.62409248  0.21043094  0.21960365    -0.71900
O2374       O  0.68768830  0.26829327  0.26746672    -0.71900
Ni2375     Ni  0.60367683  0.26918560  0.27192382     1.25400
Ni2376     Ni  0.65628345  0.24086664  0.24303539     1.25400
C2377       C  0.67408686  0.28787533  0.29127032     0.90300
C2378       C  0.58905052  0.21331340  0.22320089     0.90300
C2379       C  0.62908121  0.20514377  0.30737682     0.90300
C2380       C  0.62854975  0.31251927  0.21209064     0.90500
O2381       O  0.71467197  0.09869056  0.22417522    -0.71800
O2382       O  0.77494920  0.07380009  0.29620171    -0.71900
O2383       O  0.70132623  0.07063660  0.28892553    -0.71900
O2384       O  0.78728100  0.09725580  0.23058026    -0.72000
O2385       O  0.78357377  0.15875346  0.24256275    -0.71900
O2386       O  0.69780542  0.13000498  0.30702762    -0.71900
O2387       O  0.77355849  0.13508975  0.30989202    -0.71900
O2388       O  0.70965999  0.15868052  0.24102529    -0.71900
Ni2389     Ni  0.74452125  0.08296011  0.25980551     1.25400
Ni2390     Ni  0.74084108  0.14780882  0.27620421     1.25400
C2391       C  0.70410960  0.13355026  0.21991848     0.90300
C2392       C  0.78713237  0.10162634  0.31215005     0.90300
C2393       C  0.68470047  0.09539766  0.30691234     0.90300
C2394       C  0.79850847  0.13185318  0.22486910     0.90500
O2395       O  0.97059319  0.18255487  0.22159251    -0.71800
O2396       O  0.94509729  0.24374181  0.29969947    -0.71900
O2397       O  0.97294573  0.17284760  0.28972641    -0.71900
O2398       O  0.94721222  0.25495810  0.23027522    -0.72000
O2399       O  0.89019129  0.23104709  0.23024309    -0.71900
O2400       O  0.91457006  0.15071502  0.29405445    -0.71900
O2401       O  0.88762339  0.22070452  0.29992818    -0.71900
O2402       O  0.91323474  0.15801832  0.22679868    -0.71900
Ni2403     Ni  0.96114451  0.21439981  0.26040460     1.25400
Ni2404     Ni  0.89933024  0.18957411  0.26305517     1.25400
C2405       C  0.94526816  0.16098901  0.21104291     0.90300
C2406       C  0.91116533  0.24172212  0.31270449     0.90300
C2407       C  0.94817087  0.14858869  0.30150822     0.90300
C2408       C  0.91598908  0.25485251  0.21799285     0.90500
O2409       O  0.84068620  0.38066063  0.23144894    -0.71800
O2410       O  0.76381772  0.40215276  0.30479509    -0.71900
O2411       O  0.76784622  0.37324647  0.24304229    -0.71900
O2412       O  0.83819631  0.40146372  0.29925903    -0.72000
O2413       O  0.83724781  0.46253615  0.28111115    -0.71900
O2414       O  0.76107522  0.43217844  0.22108105    -0.71900
O2415       O  0.76338074  0.46218430  0.28272400    -0.71900
O2416       O  0.83561236  0.44192499  0.21441415    -0.71900
Ni2417     Ni  0.80310152  0.38731347  0.27053688     1.25400
Ni2418     Ni  0.79954782  0.45198448  0.24907921     1.25400
C2419       C  0.84828660  0.40889468  0.20913150     0.90300
C2420       C  0.75010279  0.43638558  0.30372316     0.90300
C2421       C  0.75195085  0.39594635  0.22351318     0.90300
C2422       C  0.84830404  0.43560772  0.30179243     0.90500
O2423       O  0.82263971  0.19312827  0.40674234    -0.71800
O2424       O  0.75476653  0.28275005  0.40313628    -0.71900
O2425       O  0.83067509  0.27600873  0.40636092    -0.71900
O2426       O  0.74995639  0.20550847  0.39931186    -0.72000
O2427       O  0.74164326  0.19899578  0.45578138    -0.71900
O2428       O  0.82015345  0.27199711  0.46249359    -0.71900
O2429       O  0.74614251  0.27476552  0.45924265    -0.71900
O2430       O  0.81378883  0.19249852  0.46276844    -0.71900
Ni2431     Ni  0.79038995  0.23975912  0.40170553     1.25400
Ni2432     Ni  0.78035650  0.23461722  0.46184782     1.25400
C2433       C  0.82662086  0.17615168  0.43625440     0.90300
C2434       C  0.73799796  0.29181271  0.43174783     0.90300
C2435       C  0.83767570  0.28740005  0.43535758     0.90300
C2436       C  0.73372439  0.18988891  0.42633003     0.90500
O2437       O  0.56900764  0.47589695  0.16954232    -0.71800
O2438       O  0.97708803  0.03446356  0.16844114    -0.71900
O2439       O  0.54849748  0.05428770  0.17426553    -0.71900
O2440       O  0.99685415  0.45658249  0.16422821    -0.72000
O2441       O  0.98706218  0.44946018  0.22030335    -0.71900
O2442       O  0.53954370  0.04331878  0.22991195    -0.71900
O2443       O  0.96952632  0.02504254  0.22456203    -0.71900
O2444       O  0.55889158  0.46605105  0.22516397    -0.71900
Ni2445     Ni  0.52324846  0.50561103  0.16695225     1.25400
Ni2446     Ni  0.51358879  0.49570594  0.22671913     1.25400
C2447       C  0.57832894  0.45968574  0.19735058     0.90300
C2448       C  0.95875532  0.04002631  0.19697141     0.90300
C2449       C  0.55052647  0.06598992  0.20432311     0.90300
C2450       C  0.98452735  0.43636357  0.19107938     0.90500
O2451       O  0.98262306  0.99391734  0.36560581    -0.71800
O2452       O  0.57980105  0.46014791  0.36244153    -0.71900
O2453       O  0.01723975  0.43074802  0.34904714    -0.71900
O2454       O  0.54675453  0.02307552  0.37415991    -0.72000
O2455       O  0.54049415  0.00663130  0.42936741    -0.71900
O2456       O  0.99833642  0.41273366  0.40273738    -0.71900
O2457       O  0.56690343  0.43526670  0.41534839    -0.71900
O2458       O  0.97288403  0.98030595  0.42109396    -0.71900
Ni2459     Ni  0.53200808  0.47779176  0.36106980     1.25400
Ni2460     Ni  0.51981663  0.45778837  0.41975474     1.25400
C2461       C  0.96217440  0.99380234  0.39341570     0.90300
C2462       C  0.58608280  0.43693443  0.38684261     0.90300
C2463       C  0.00041642  0.40784942  0.37072573     0.90300
C2464       C  0.54789326  0.03112730  0.40428528     0.90500
O2465       O  0.71243604  0.48760562  0.47059864    -0.71800
O2466       O  0.67737883  0.03758111  0.04769387    -0.71900
O2467       O  0.71524237  0.47331485  0.03586241    -0.71900
O2468       O  0.67135310  0.05009542  0.48128646    -0.72000
O2469       O  0.61995062  0.01478367  0.48383410    -0.71900
O2470       O  0.66287208  0.43915735  0.04067436    -0.71900
O2471       O  0.62379336  0.00551158  0.05120707    -0.71900
O2472       O  0.66097605  0.45200157  0.47266783    -0.71900
Ni2473     Ni  0.69575769  0.51345868  0.00885468     1.25400
Ni2474     Ni  0.63981184  0.47648746  0.51243588     1.25400
C2475       C  0.69374212  0.46110403  0.45926356     0.90300
C2476       C  0.64475012  0.03174555  0.06118163     0.90300
C2477       C  0.69593256  0.44398746  0.04805189     0.90300
C2478       C  0.64070979  0.04177620  0.46970751     0.90500
O2479       O  0.55320795  0.14065979  0.45163546    -0.71800
O2480       O  0.97682019  0.10884514  0.02174508    -0.71900
O2481       O  0.97715413  0.12640182  0.45780275    -0.71900
O2482       O  0.55306188  0.12309928  0.01771715    -0.72000
O2483       O  0.53945699  0.18206953  0.03299815    -0.71900
O2484       O  0.96834847  0.18848989  0.46374462    -0.71900
O2485       O  0.96075849  0.16886842  0.03083333    -0.71900
O2486       O  0.54338573  0.20112817  0.46412296    -0.71900
Ni2487     Ni  0.51555646  0.12293621  0.48691896     1.25400
Ni2488     Ni  0.50283741  0.18762224  0.49862590     1.25400
C2489       C  0.56136758  0.17627000  0.44625641     0.90300
C2490       C  0.95326884  0.13258543  0.03479364     0.90300
C2491       C  0.96052536  0.15709628  0.45031493     0.90300
C2492       C  0.55902267  0.15135374  0.03588864     0.90500
O2493       O  0.80407427  0.99232918  0.04808952    -0.71800
O2494       O  0.81072509  0.42605529  0.47225496    -0.71900
O2495       O  0.81269124  0.41685994  0.04083933    -0.71900
O2496       O  0.79977292  0.00402328  0.48007922    -0.72000
O2497       O  0.86015434  0.01365254  0.46888762    -0.71900
O2498       O  0.87350110  0.42736985  0.03738426    -0.71900
O2499       O  0.87193406  0.43248166  0.46684723    -0.71900
O2500       O  0.86447488  0.00526565  0.03867684    -0.71900
Ni2501     Ni  0.80492840  0.45958744  0.01018510     1.25400
Ni2502     Ni  0.86985199  0.47002884  0.00233950     1.25400
C2503       C  0.83349963  0.00860852  0.05657139     0.90300
C2504       C  0.84244088  0.41684690  0.45759803     0.90300
C2505       C  0.84423066  0.40941873  0.05160652     0.90300
C2506       C  0.82651044  0.02392123  0.46424047     0.90500
O2507       O  0.00483753  0.38158057  0.00644024    -0.71800
O2508       O  0.58856846  0.36216919  0.43960643    -0.71900
O2509       O  0.01187933  0.35144354  0.44256398    -0.71900
O2510       O  0.57720775  0.39769242  0.00095582    -0.72000
O2511       O  0.58250728  0.34151437  0.02878678    -0.71900
O2512       O  0.52302855  0.29309798  0.46400340    -0.71900
O2513       O  0.59738541  0.30675723  0.46737023    -0.71900
O2514       O  0.51095813  0.32156488  0.02696863    -0.71900
Ni2515     Ni  0.54543240  0.37516018  0.47106775     1.25400
Ni2516     Ni  0.55397098  0.31372913  0.49749645     1.25400
C2517       C  0.99646975  0.35450535  0.02939449     0.90300
C2518       C  0.60643973  0.33032191  0.44237453     0.90300
C2519       C  0.00654251  0.31519619  0.44288859     0.90300
C2520       C  0.58681396  0.37847134  0.02691983     0.90500
N2521       N  0.83410053  0.07996201  0.91467239    -0.00900
C2522       C  0.81443445  0.05524234  0.93837123     0.01700
C2523       C  0.78103796  0.04789765  0.92559402    -0.21200
C2524       C  0.78147586  0.06343591  0.89314572    -0.21400
C2525       C  0.81478272  0.08215130  0.88660057     0.01600
H2526       H  0.75973811  0.02916089  0.93753944     0.15400
H2527       H  0.76185602  0.05711835  0.87511224     0.15400
N2528       N  0.91854420  0.04090493  0.87415977    -0.00900
C2529       C  0.92567565  0.00897717  0.89257733     0.01700
C2530       C  0.89405203  0.98710203  0.90045042    -0.21200
C2531       C  0.86614745  0.00625091  0.88567009    -0.21400
C2532       C  0.88258487  0.03882620  0.86943217     0.01600
H2533       H  0.89285376  0.45800678  0.91084748     0.15400
H2534       H  0.83821015  0.99575162  0.88405939     0.15400
N2535       N  0.92432930  0.12045042  0.91168418    -0.00900
C2536       C  0.93436269  0.15471528  0.92393612     0.01700
C2537       C  0.92806529  0.18472676  0.90202010    -0.21200
C2538       C  0.92114522  0.16845866  0.87265225    -0.21400
C2539       C  0.92269934  0.12887786  0.87798681     0.01600
H2540       H  0.43247271  0.21451384  0.90595543     0.15400
H2541       H  0.92052015  0.18432013  0.84922107     0.15400
N2542       N  0.85833717  0.11073849  0.92091669    -0.00900
C2543       C  0.84668603  0.13814623  0.94288024     0.01700
C2544       C  0.86575500  0.13267031  0.97131039    -0.21200
C2545       C  0.89077502  0.10392155  0.96536861    -0.21400
C2546       C  0.89240328  0.10114840  0.93053955     0.01600
H2547       H  0.86808891  0.15311767  0.99039310     0.15400
H2548       H  0.91377443  0.09906599  0.98053533     0.15400
N2549       N  0.94027317  0.10466188  0.85244691    -0.00900
C2550       C  0.95872754  0.11632607  0.82235955     0.01700
C2551       C  0.97563142  0.08632399  0.80643330    -0.21200
C2552       C  0.96535939  0.05437060  0.82608988    -0.21400
C2553       C  0.94466609  0.06616647  0.85478352     0.01600
H2554       H  0.98766618  0.08666871  0.78042939     0.15400
H2555       H  0.96690324  0.02589547  0.81670812     0.15400
N2556       N  0.83371433  0.08307929  0.85313649    -0.00900
C2557       C  0.82409749  0.09776881  0.82295963     0.01700
C2558       C  0.85180936  0.09159059  0.79770157    -0.21200
C2559       C  0.87750661  0.06925415  0.81184913    -0.21400
C2560       C  0.86542490  0.06446275  0.84564385     0.01600
H2561       H  0.85083115  0.09821564  0.77091397     0.15400
H2562       H  0.90060319  0.05566003  0.79833792     0.15400
N2563       N  0.61527042  0.17029030  0.89787374    -0.00900
C2564       C  0.59527461  0.18929969  0.92341610     0.01700
C2565       C  0.61757111  0.21484158  0.93706811    -0.21200
C2566       C  0.65224949  0.21021114  0.92256426    -0.21400
C2567       C  0.65176080  0.17787707  0.90364034     0.01600
H2568       H  0.61042203  0.23190424  0.95864335     0.15400
H2569       H  0.67540981  0.22378829  0.93240966     0.15400
N2570       N  0.57172474  0.09461545  0.88555552    -0.00900
C2571       C  0.54896866  0.07141667  0.90689325     0.01700
C2572       C  0.51467470  0.08812286  0.91125063    -0.21200
C2573       C  0.51738203  0.12370697  0.89480838    -0.21400
C2574       C  0.55317866  0.12758059  0.88229492     0.01600
H2575       H  0.48896944  0.07339143  0.92034446     0.15400
H2576       H  0.49595668  0.14364378  0.88963867     0.15400
N2577       N  0.64573944  0.08385354  0.91412105    -0.00900
C2578       C  0.63568040  0.05122397  0.93392307     0.01700
C2579       C  0.63641174  0.01951601  0.91464413    -0.21200
C2580       C  0.64912031  0.03167784  0.88307270    -0.21400
C2581       C  0.65086911  0.07128033  0.88260774     0.01600
H2582       H  0.63112264  0.98984496  0.92312213     0.15400
H2583       H  0.64886254  0.01477956  0.86138276     0.15400
N2584       N  0.67830362  0.14814762  0.91349449    -0.00900
C2585       C  0.71287719  0.15477857  0.92423163     0.01700
C2586       C  0.73002469  0.12232925  0.93492725    -0.21200
C2587       C  0.70631175  0.09378563  0.93148167    -0.21400
C2588       C  0.67410573  0.10947980  0.92195133     0.01600
H2589       H  0.75754144  0.11994919  0.94342988     0.15400
H2590       H  0.71170755  0.06371296  0.93408858     0.15400
N2591       N  0.63460558  0.09091423  0.85589730    -0.00900
C2592       C  0.64776475  0.08392457  0.82385079     0.01700
C2593       C  0.62095308  0.06560383  0.80775399    -0.21200
C2594       C  0.58844810  0.06755863  0.82822188    -0.21400
C2595       C  0.59779575  0.08326083  0.85771474     0.01600
H2596       H  0.62431895  0.05338006  0.78326113     0.15400
H2597       H  0.56115828  0.05977501  0.82163362     0.15400
N2598       N  0.60179718  0.17264413  0.86414937    -0.00900
C2599       C  0.62109462  0.17173770  0.83204763     0.01700
C2600       C  0.59794862  0.15398047  0.81115219    -0.21200
C2601       C  0.56320990  0.15201122  0.82681989    -0.21400
C2602       C  0.56753643  0.15853495  0.85987175     0.01600
H2603       H  0.60349482  0.14929032  0.78454801     0.15400
H2604       H  0.54010993  0.13759136  0.81712823     0.15400
N2605       N  0.69586464  0.41602681  0.91170265    -0.00900
C2606       C  0.71156547  0.44244361  0.92992514     0.01700
C2607       C  0.74569993  0.45408188  0.91505575    -0.21200
C2608       C  0.74906487  0.43948998  0.88419004    -0.21400
C2609       C  0.71651672  0.41960899  0.88094568     0.01600
H2610       H  0.76594126  0.47195999  0.92483860     0.15400
H2611       H  0.76983713  0.44941907  0.86438172     0.15400
N2612       N  0.63798238  0.40522121  0.85898131    -0.00900
C2613       C  0.60537205  0.40396084  0.87705372     0.01700
C2614       C  0.58527396  0.37231029  0.86939215    -0.21200
C2615       C  0.60657944  0.35396526  0.84543118    -0.21400
C2616       C  0.63937499  0.37455161  0.84064224     0.01600
H2617       H  0.55752998  0.36406196  0.87932654     0.15400
H2618       H  0.59921510  0.32753781  0.83475896     0.15400
N2619       N  0.66458415  0.32702806  0.89768131    -0.00900
C2620       C  0.63079699  0.31497988  0.91337443     0.01700
C2621       C  0.61755418  0.28583710  0.89563645    -0.21200
C2622       C  0.64372495  0.27890256  0.86958000    -0.21400
C2623       C  0.67109340  0.30657987  0.86948615     0.01600
H2624       H  0.59057022  0.27216466  0.90015453     0.15400
H2625       H  0.64020946  0.25907432  0.85041426     0.15400
N2626       N  0.69331723  0.34519116  0.91308742    -0.00900
C2627       C  0.71065447  0.32357615  0.93656728     0.01700
C2628       C  0.70408210  0.33811202  0.96798933    -0.21200
C2629       C  0.68721829  0.37214286  0.96326532    -0.21400
C2630       C  0.68526149  0.37860784  0.92839798     0.01600
H2631       H  0.71441283  0.32755523  0.99143494     0.15400
H2632       H  0.68432794  0.39174919  0.98320960     0.15400
N2633       N  0.68635860  0.32552769  0.83790126    -0.00900
C2634       C  0.69942488  0.31040856  0.80867956     0.01700
C2635       C  0.71016997  0.33980778  0.78531461    -0.21200
C2636       C  0.69037464  0.37089830  0.79542966    -0.21400
C2637       C  0.67451088  0.35993934  0.82708780     0.01600
H2638       H  0.71660053  0.33514230  0.75882569     0.15400
H2639       H  0.68233142  0.39454910  0.77902980     0.15400
N2640       N  0.69899236  0.42969127  0.85068444    -0.00900
C2641       C  0.71524479  0.44726142  0.82209855     0.01700
C2642       C  0.68961972  0.46839525  0.80544845    -0.21200
C2643       C  0.65609742  0.46066750  0.82294878    -0.21400
C2644       C  0.66254140  0.43647823  0.85056121     0.01600
H2645       H  0.69379784  0.48275336  0.78053792     0.15400
H2646       H  0.62966291  0.46656929  0.81320520     0.22600
N2647       N  0.94483195  0.38020858  0.85181036    -0.00900
C2648       C  0.98118836  0.37803687  0.85639994     0.01700
C2649       C  0.99907647  0.35408726  0.83383487    -0.21200
C2650       C  0.97215391  0.33880714  0.81657650    -0.21400
C2651       C  0.93895163  0.35341310  0.83005288     0.01600
H2652       H  0.52843179  0.34889793  0.82968205     0.15400
H2653       H  0.97578225  0.31519025  0.80003448     0.15400
N2654       N  0.87363875  0.37842114  0.90756274    -0.00900
C2655       C  0.84321753  0.39005288  0.92814086     0.01700
C2656       C  0.81240220  0.38879847  0.91055545    -0.21200
C2657       C  0.82489144  0.38967553  0.87697456    -0.21400
C2658       C  0.86306720  0.38841831  0.87553732     0.01600
H2659       H  0.78440369  0.39293897  0.92099182     0.15400
H2660       H  0.80806558  0.39654919  0.85654428     0.15400
N2661       N  0.95044062  0.31080806  0.90498812    -0.00900
C2662       C  0.98385017  0.29856152  0.91651821     0.01700
C2663       C  0.99812476  0.26931676  0.89731076    -0.21200
C2664       C  0.97435154  0.26311704  0.87299441    -0.21400
C2665       C  0.94494536  0.28767724  0.87833069     0.01600
H2666       H  0.52414606  0.25489247  0.89984597     0.15400
H2667       H  0.97851740  0.24297659  0.85330789     0.15400
N2668       N  0.91646975  0.29281399  0.85454877    -0.00900
C2669       C  0.89557392  0.26733372  0.83929430     0.01700
C2670       C  0.86628807  0.28740971  0.82655084    -0.21200
C2671       C  0.87783012  0.32475012  0.82270005    -0.21400
C2672       C  0.90908098  0.32666421  0.83940045     0.01600
H2673       H  0.84627302  0.27600706  0.81083820     0.15400
H2674       H  0.86956322  0.34492265  0.80360970     0.15400
N2675       N  0.88715905  0.33960497  0.91376134    -0.00900
C2676       C  0.86769723  0.31678456  0.93884713     0.01700
C2677       C  0.88569748  0.31597263  0.96760388    -0.21200
C2678       C  0.92048871  0.33001264  0.95828630    -0.21400
C2679       C  0.92287332  0.33534209  0.92316001     0.01600
H2680       H  0.87682568  0.30000215  0.99065814     0.15400
H2681       H  0.94293692  0.32474304  0.97395389     0.15400
N2682       N  0.88614561  0.41301123  0.85038758    -0.00900
C2683       C  0.87634930  0.44102712  0.82661324     0.01700
C2684       C  0.90711003  0.46285278  0.81502651    -0.21200
C2685       C  0.93674138  0.44556138  0.82830801    -0.21400
C2686       C  0.92354767  0.41476019  0.84961646     0.01600
H2687       H  0.90923539  0.48340438  0.79351779     0.15400
H2688       H  0.96495970  0.45046309  0.81778241     0.15400
N2689       N  0.61557579  0.38709297  0.58302933    -0.00900
C2690       C  0.59667650  0.40055418  0.55698163     0.01700
C2691       C  0.57624461  0.43145427  0.56819020    -0.21200
C2692       C  0.57909973  0.43237900  0.60286926    -0.21400
C2693       C  0.60337897  0.40390105  0.61224507     0.01600
H2694       H  0.55535995  0.44618741  0.55469847     0.15400
H2695       H  0.55910685  0.44642408  0.61947362     0.15400
N2696       N  0.63263192  0.40843789  0.68797841    -0.00900
C2697       C  0.61598700  0.44173849  0.69967865     0.01700
C2698       C  0.64073964  0.46146283  0.71711837    -0.21200
C2699       C  0.67325526  0.44183623  0.71568217    -0.21400
C2700       C  0.66810266  0.41012842  0.69733390     0.01600
H2701       H  0.63583027  0.48834370  0.72913944     0.15400
H2702       H  0.69800845  0.45113708  0.72600142     0.15400
N2703       N  0.69619769  0.38927626  0.59413548    -0.00900
C2704       C  0.71031651  0.42182110  0.57628907     0.01700
C2705       C  0.72986325  0.44388407  0.59674708    -0.21200
C2706       C  0.72526296  0.42737437  0.62820890    -0.21400
C2707       C  0.70470335  0.39427352  0.62632800     0.01600
H2708       H  0.74246134  0.47192421  0.59064457     0.15400
H2709       H  0.73662257  0.43817845  0.65023103     0.15400
N2710       N  0.67657586  0.35734271  0.58278070    -0.00900
C2711       C  0.68614310  0.31947028  0.58424046     0.01700
C2712       C  0.65605288  0.29554539  0.58259698    -0.21200
C2713       C  0.62638030  0.31815605  0.58044095    -0.21400
C2714       C  0.63938912  0.35525811  0.58124867     0.01600
H2715       H  0.65589755  0.26456142  0.58215366     0.15400
H2716       H  0.59822918  0.30804703  0.57988818     0.15400
N2717       N  0.69749860  0.38470618  0.68638703    -0.00900
C2718       C  0.72874045  0.37487114  0.70113205     0.01700
C2719       C  0.74391466  0.34340436  0.68588616    -0.21200
C2720       C  0.72688366  0.34000148  0.65697801    -0.21400
C2721       C  0.70016457  0.36791241  0.65620558     0.01600
H2722       H  0.76984661  0.32997600  0.69094621     0.15400
H2723       H  0.74245737  0.32984613  0.63519514     0.15400
N2724       N  0.61695858  0.37658171  0.67239789    -0.00900
C2725       C  0.61746833  0.33714910  0.68186338     0.01700
C2726       C  0.59435019  0.31820940  0.66269385    -0.21200
C2727       C  0.57982664  0.34435392  0.64126919    -0.21400
C2728       C  0.59620187  0.37943563  0.64486625     0.01600
H2729       H  0.58891526  0.28775597  0.66389764     0.15400
H2730       H  0.56419575  0.33683881  0.62074100     0.15400
N2731       N  0.87139897  0.36482636  0.59802543    -0.00900
C2732       C  0.84334727  0.38433975  0.58416446     0.01700
C2733       C  0.81307007  0.38475424  0.60747738    -0.21200
C2734       C  0.82383633  0.37044537  0.63768899    -0.21400
C2735       C  0.86141583  0.36302269  0.63299510     0.01600
H2736       H  0.78738146  0.39875622  0.60391425     0.15400
H2737       H  0.80851740  0.37484848  0.66164463     0.15400
N2738       N  0.94813321  0.37516968  0.67473347    -0.00900
C2739       C  0.97424427  0.39458082  0.69085713     0.01700
C2740       C  0.99184965  0.36896060  0.71170451    -0.21200
C2741       C  0.97704842  0.33328496  0.70876934    -0.21400
C2742       C  0.94967714  0.33782478  0.68687508     0.01600
H2743       H  0.51435704  0.37547294  0.72678573     0.15400
H2744       H  0.48807132  0.30709904  0.71916470     0.15400
N2745       N  0.94996615  0.34097635  0.57962677    -0.00900
C2746       C  0.97865776  0.36197664  0.56354745     0.01700
C2747       C  0.00304431  0.36828267  0.58761666    -0.21200
C2748       C  0.99069884  0.34812309  0.61711613    -0.21400
C2749       C  0.95792332  0.33095237  0.61153590     0.01600
H2750       H  0.53060268  0.37843683  0.58259821     0.15400
H2751       H  0.00547395  0.34412766  0.63936685     0.15400
N2752       N  0.88346322  0.33132540  0.58089649    -0.00900
C2753       C  0.86341423  0.30105363  0.56997369     0.01700
C2754       C  0.88664960  0.27894044  0.54960405    -0.21200
C2755       C  0.92082013  0.29588757  0.54614374    -0.21400
C2756       C  0.91823391  0.32735467  0.56556466     0.01600
H2757       H  0.87929595  0.25274311  0.53818056     0.15400
H2758       H  0.94573886  0.28396184  0.53401153     0.15400
N2759       N  0.93369897  0.30643835  0.67072397    -0.00900
C2760       C  0.91294932  0.27560576  0.68470251     0.01700
C2761       C  0.90125446  0.25476550  0.65892376    -0.21200
C2762       C  0.91669027  0.27173536  0.62896061    -0.21400
C2763       C  0.93566974  0.30415188  0.63660031     0.01600
H2764       H  0.88793470  0.22674626  0.66165046     0.15400
H2765       H  0.91705770  0.25886784  0.60496592     0.15400
N2766       N  0.88486215  0.37641421  0.65959158    -0.00900
C2767       C  0.87257513  0.40765245  0.67662587     0.01700
C2768       C  0.89101955  0.44056977  0.66301384    -0.21200
C2769       C  0.92100971  0.42786722  0.64400906    -0.21400
C2770       C  0.92072126  0.38889165  0.65201866     0.01600
H2771       H  0.88694723  0.46975121  0.67049819     0.15400
H2772       H  0.94446994  0.44557033  0.63449852     0.15400
N2773       N  0.89317905  0.13327854  0.57673180    -0.00900
C2774       C  0.91800430  0.11512925  0.55422097     0.01700
C2775       C  0.92331382  0.07772443  0.56652632    -0.21200
C2776       C  0.91508842  0.07809439  0.60052532    -0.21400
C2777       C  0.90229296  0.11449918  0.60635044     0.01600
H2778       H  0.94172320  0.05683229  0.55502411     0.15400
H2779       H  0.92627932  0.05814428  0.61870751     0.15400
N2780       N  0.90708597  0.08878816  0.68295415    -0.00900
C2781       C  0.92147120  0.05759384  0.69974547     0.01700
C2782       C  0.89372813  0.03812577  0.72015162    -0.21200
C2783       C  0.86134893  0.05643210  0.71583021    -0.21400
C2784       C  0.87005322  0.08709243  0.69324219     0.01600
H2785       H  0.89647434  0.51177723  0.73534833     0.15400
H2786       H  0.83427926  0.04691985  0.72679304     0.15400
N2787       N  0.83648284  0.06542569  0.59492268    -0.00900
C2788       C  0.83223002  0.02737087  0.58961756     0.01700
C2789       C  0.82558539  0.00687658  0.62027629    -0.21200
C2790       C  0.82563465  0.03293853  0.64517742    -0.21400
C2791       C  0.83230359  0.06889473  0.62919537     0.01600
H2792       H  0.82044198  0.47628341  0.62412939     0.15400
H2793       H  0.81914616  0.02627961  0.67191640     0.15400
N2794       N  0.85377006  0.13143622  0.57149502    -0.00900
C2795       C  0.83447357  0.15516477  0.54971246     0.01700
C2796       C  0.81234082  0.13250244  0.53163099    -0.21200
C2797       C  0.81357067  0.09591209  0.54425699    -0.21400
C2798       C  0.83719411  0.09620938  0.56929415     0.01600
H2799       H  0.79154728  0.14241527  0.51525713     0.15400
H2800       H  0.79518771  0.07289801  0.53890042     0.15400
N2801       N  0.84237196  0.10987484  0.67864336    -0.00900
C2802       C  0.82397173  0.13951281  0.69328112     0.01700
C2803       C  0.80825205  0.15978256  0.66746084    -0.21200
C2804       C  0.80915889  0.13643834  0.64006311    -0.21400
C2805       C  0.83059151  0.10555042  0.64763269     0.01600
H2806       H  0.79137847  0.18494090  0.67080703     0.15400
H2807       H  0.79170983  0.13844943  0.61946766     0.15400
N2808       N  0.92624478  0.12044854  0.66442700    -0.00900
C2809       C  0.94965864  0.14637390  0.67674338     0.01700
C2810       C  0.96221728  0.17288603  0.65099145    -0.21200
C2811       C  0.94379410  0.16571826  0.62331476    -0.21400
C2812       C  0.92132992  0.13407676  0.63212043     0.01600
H2813       H  0.97854416  0.19852003  0.65348791     0.15400
H2814       H  0.94637706  0.18216636  0.59931060     0.15400
N2815       N  0.60390951  0.16345579  0.58386939    -0.00900
C2816       C  0.58080344  0.14127172  0.56567027     0.01700
C2817       C  0.56167305  0.11304650  0.58598405    -0.21200
C2818       C  0.56452014  0.12224581  0.61779260    -0.21400
C2819       C  0.58805190  0.15332586  0.61624741     0.01600
H2820       H  0.54025944  0.09399103  0.57882058     0.15400
H2821       H  0.54552665  0.11249592  0.63902950     0.15400
N2822       N  0.64554156  0.08978458  0.59555890    -0.00900
C2823       C  0.63369077  0.05342173  0.59064445     0.01700
C2824       C  0.62383226  0.03398652  0.62130836    -0.21200
C2825       C  0.63080000  0.05832933  0.64604499    -0.21400
C2826       C  0.64423161  0.09210810  0.62955193     0.01600
H2827       H  0.61772205  0.00363027  0.62518474     0.15400
H2828       H  0.62994585  0.05061004  0.67287178     0.15400
N2829       N  0.59025449  0.12661800  0.68854202    -0.00900
C2830       C  0.56747980  0.10463480  0.71160302     0.01700
C2831       C  0.58421991  0.10161268  0.74147119    -0.21200
C2832       C  0.62103817  0.10954894  0.73341504    -0.21400
C2833       C  0.62371890  0.12202659  0.70020649     0.01600
H2834       H  0.57274613  0.08653383  0.76442833     0.15400
H2835       H  0.64324994  0.10472041  0.74927977     0.15400
N2836       N  0.65746719  0.12885957  0.67937453    -0.00900
C2837       C  0.68838889  0.14516063  0.68853061     0.01700
C2838       C  0.71208099  0.15310128  0.65998904    -0.21200
C2839       C  0.69715515  0.13724237  0.63347864    -0.21400
C2840       C  0.66332356  0.12221365  0.64622191     0.01600
H2841       H  0.73964371  0.16377262  0.65919713     0.15400
H2842       H  0.71177574  0.13275540  0.60907158     0.15400
N2843       N  0.58184484  0.16531755  0.67786144    -0.00900
C2844       C  0.56786925  0.19446817  0.69745368     0.01700
C2845       C  0.55211526  0.22093771  0.67586666    -0.21200
C2846       C  0.56236194  0.21173125  0.64297762    -0.21400
C2847       C  0.58195607  0.17815689  0.64488097     0.01600
H2848       H  0.53929195  0.24761846  0.68296716     0.15400
H2849       H  0.55505101  0.22720518  0.62020258     0.15400
N2850       N  0.64422717  0.15908844  0.57856616    -0.00900
C2851       C  0.66828511  0.18154483  0.55549650     0.01700
C2852       C  0.67800814  0.15916529  0.52832097    -0.21200
C2853       C  0.67228936  0.12173309  0.53949614    -0.21400
C2854       C  0.65468282  0.12249128  0.57169170     0.01600
H2855       H  0.69671950  0.16742932  0.50631422     0.15400
H2856       H  0.68347015  0.09830680  0.52579192     0.15400
O2857       O  0.73144044  0.27967152  0.60377058    -0.71800
O2858       O  0.79850247  0.19653897  0.58797167    -0.71900
O2859       O  0.80744511  0.27183661  0.59982070    -0.71900
O2860       O  0.71849079  0.20584523  0.59129556    -0.72000
O2861       O  0.72272877  0.22280748  0.53665098    -0.71900
O2862       O  0.80918098  0.28725659  0.54460883    -0.71900
O2863       O  0.80101849  0.21198717  0.53301246    -0.71900
O2864       O  0.73548921  0.29725877  0.54884931    -0.71900
Ni2865     Ni  0.76390212  0.23784163  0.59768419     1.25400
Ni2866     Ni  0.76726659  0.25509510  0.53892334     1.25400
C2867       C  0.72181648  0.30131655  0.57919705     0.90300
C2868       C  0.81225550  0.19093775  0.55779738     0.90300
C2869       C  0.82334906  0.28946577  0.57289925     0.90300
C2870       C  0.70418382  0.20520395  0.56240578     0.90500
O2871       O  0.63918671  0.29464571  0.79549193    -0.71800
O2872       O  0.57386236  0.23708908  0.74435148    -0.71900
O2873       O  0.60395246  0.23045827  0.80682466    -0.71900
O2874       O  0.60528573  0.31092263  0.73811878    -0.72000
O2875       O  0.65294020  0.28516821  0.70875399    -0.71900
O2876       O  0.65358747  0.20295124  0.78158256    -0.71900
O2877       O  0.62409186  0.21043063  0.71960436    -0.71900
O2878       O  0.68768793  0.26829272  0.76746768    -0.71900
Ni2879     Ni  0.60367637  0.26918511  0.77192477     1.25400
Ni2880     Ni  0.65628285  0.24086627  0.74303624     1.25400
C2881       C  0.67408649  0.28787459  0.79127149     0.90300
C2882       C  0.58904993  0.21331303  0.72320166     0.90300
C2883       C  0.62908056  0.20514305  0.80737762     0.90300
C2884       C  0.62854910  0.31251915  0.71209162     0.90500
O2885       O  0.71467107  0.09869119  0.72417537    -0.71800
O2886       O  0.77494953  0.07380095  0.79620091    -0.71900
O2887       O  0.70132637  0.07063709  0.78892553    -0.71900
O2888       O  0.78728030  0.09725626  0.73057954    -0.72000
O2889       O  0.78357365  0.15875387  0.74256241    -0.71900
O2890       O  0.69780540  0.13000573  0.80702723    -0.71900
O2891       O  0.77355835  0.13509049  0.80989166    -0.71900
O2892       O  0.70965991  0.15868137  0.74102519    -0.71900
Ni2893     Ni  0.74452095  0.08296068  0.75980516     1.25400
Ni2894     Ni  0.74084101  0.14780951  0.77620391     1.25400
C2895       C  0.70410900  0.13355104  0.71991864     0.90300
C2896       C  0.78713259  0.10162727  0.81214933     0.90300
C2897       C  0.68470055  0.09539840  0.80691211     0.90300
C2898       C  0.79850802  0.13185363  0.72486862     0.90500
O2899       O  0.97059259  0.18255594  0.72159222    -0.71800
O2900       O  0.94509729  0.24374255  0.79969951    -0.71900
O2901       O  0.97294631  0.17284883  0.78972586    -0.71900
O2902       O  0.94721090  0.25495882  0.73027513    -0.72000
O2903       O  0.89019028  0.23104713  0.73024297    -0.71900
O2904       O  0.91457077  0.15071592  0.79405458    -0.71900
O2905       O  0.88762346  0.22070518  0.79992839    -0.71900
O2906       O  0.91323443  0.15801866  0.72679904    -0.71900
Ni2907     Ni  0.96114417  0.21440083  0.76040432     1.25400
Ni2908     Ni  0.89933011  0.18957462  0.76305535     1.25400
C2909       C  0.94526780  0.16098966  0.71104294     0.90300
C2910       C  0.91116547  0.24172256  0.81270486     0.90300
C2911       C  0.94817175  0.14858978  0.80150794     0.90300
C2912       C  0.91598796  0.25485275  0.71799257     0.90500
O2913       O  0.84068554  0.38066187  0.73144897    -0.71800
O2914       O  0.76381752  0.40215382  0.80479564    -0.71900
O2915       O  0.76784561  0.37324751  0.74304293    -0.71900
O2916       O  0.83819603  0.40146462  0.79925912    -0.72000
O2917       O  0.83724747  0.46253701  0.78111125    -0.71900
O2918       O  0.76107408  0.43217939  0.72108178    -0.71900
O2919       O  0.76338050  0.46218535  0.78272462    -0.71900
O2920       O  0.83561138  0.44192614  0.71441400    -0.71900
Ni2921     Ni  0.80310112  0.38731458  0.77053717     1.25400
Ni2922     Ni  0.79954717  0.45198553  0.74907950     1.25400
C2923       C  0.84828571  0.40889573  0.70913137     0.90300
C2924       C  0.75010264  0.43638659  0.80372384     0.90300
C2925       C  0.75194968  0.39594735  0.72351411     0.90300
C2926       C  0.84830360  0.43560853  0.80179269     0.90500
O2927       O  0.82263970  0.19312953  0.90674295    -0.71800
O2928       O  0.75476572  0.28275065  0.90313787    -0.71900
O2929       O  0.83067468  0.27600995  0.90636141    -0.71900
O2930       O  0.74995599  0.20550915  0.89931359    -0.72000
O2931       O  0.74164309  0.19899718  0.95578310    -0.71900
O2932       O  0.82015454  0.27199764  0.96249417    -0.71900
O2933       O  0.74614329  0.27476700  0.95924441    -0.71900
O2934       O  0.81378886  0.19249906  0.96276903    -0.71900
Ni2935     Ni  0.79038951  0.23976010  0.90170666     1.25400
Ni2936     Ni  0.78035696  0.23461823  0.96184898     1.25400
C2937       C  0.82662087  0.17615253  0.93625479     0.90300
C2938       C  0.73799775  0.29181357  0.93174952     0.90300
C2939       C  0.83767627  0.28740078  0.93535792     0.90300
C2940       C  0.73372397  0.18988993  0.92633188     0.90500
O2941       O  0.56900661  0.47589747  0.66954332    -0.71800
O2942       O  0.97708747  0.03446351  0.66844138    -0.71900
O2943       O  0.54849717  0.05428742  0.67426614    -0.71900
O2944       O  0.99685358  0.45658170  0.66422809    -0.72000
O2945       O  0.98706196  0.44945881  0.72030318    -0.71900
O2946       O  0.53954375  0.04331771  0.72991250    -0.71900
O2947       O  0.96952571  0.02504353  0.72456238    -0.71900
O2948       O  0.55889075  0.46605254  0.72516506    -0.71900
Ni2949     Ni  0.52324747  0.50561165  0.66695305     1.25400
Ni2950     Ni  0.51358807  0.49570756  0.72672004     1.25400
C2951       C  0.57832781  0.45968649  0.69735166     0.90300
C2952       C  0.95875467  0.04002649  0.69697165     0.90300
C2953       C  0.55052620  0.06598926  0.70432386     0.90300
C2954       C  0.98452678  0.43636264  0.69107913     0.90500
O2955       O  0.98262204  0.99391617  0.86560389    -0.71800
O2956       O  0.57980027  0.46014923  0.86244057    -0.71900
O2957       O  0.01723872  0.43074852  0.84904710    -0.71900
O2958       O  0.54675734  0.02307371  0.87416202    -0.72000
O2959       O  0.54049511  0.00662886  0.92936932    -0.71900
O2960       O  0.99833599  0.41273237  0.90273707    -0.71900
O2961       O  0.56690282  0.43526857  0.91534760    -0.71900
O2962       O  0.97288328  0.98030631  0.92109238    -0.71900
Ni2963     Ni  0.53200676  0.47779179  0.86106855     1.25400
Ni2964     Ni  0.51981578  0.45778983  0.91975380     1.25400
C2965       C  0.96217356  0.99380189  0.89341385     0.90300
C2966       C  0.58608195  0.43693578  0.88684172     0.90300
C2967       C  0.00041588  0.40784912  0.87072524     0.90300
C2968       C  0.54789562  0.03112492  0.90428754     0.90500
O2969       O  0.71243318  0.48760604  0.97059761    -0.71800
O2970       O  0.67737898  0.03758123  0.54769444    -0.71900
O2971       O  0.71524295  0.47331521  0.53586383    -0.71900
O2972       O  0.67135313  0.05009450  0.98128613    -0.72000
O2973       O  0.61995168  0.01478141  0.98383195    -0.71900
O2974       O  0.66287289  0.43915743  0.54067459    -0.71900
O2975       O  0.62379347  0.00551161  0.55120848    -0.71900
O2976       O  0.66097304  0.45200200  0.97266794    -0.71900
Ni2977     Ni  0.69575891  0.51345852  0.50885507     1.25400
Ni2978     Ni  0.63981036  0.47648779  0.01243667     1.25400
C2979       C  0.69373886  0.46110449  0.95926291     0.90300
C2980       C  0.64475051  0.03174560  0.56118270     0.90300
C2981       C  0.69593305  0.44398789  0.54805306     0.90300
C2982       C  0.64071065  0.04177450  0.96970610     0.90500
O2983       O  0.55320780  0.14065885  0.95163624    -0.71800
O2984       O  0.97682040  0.10884503  0.52174550    -0.71900
O2985       O  0.97715442  0.12640155  0.95780226    -0.71900
O2986       O  0.55306222  0.12310047  0.51771668    -0.72000
O2987       O  0.53945687  0.18207049  0.53299802    -0.71900
O2988       O  0.96834925  0.18848979  0.96374364    -0.71900
O2989       O  0.96075873  0.16886818  0.53083420    -0.71900
O2990       O  0.54338524  0.20112728  0.96412332    -0.71900
Ni2991     Ni  0.51555610  0.12293516  0.98691955     1.25400
Ni2992     Ni  0.50283719  0.18762129  0.99862636     1.25400
C2993       C  0.56136735  0.17626906  0.94625711     0.90300
C2994       C  0.95326911  0.13258523  0.53479437     0.90300
C2995       C  0.96052596  0.15709612  0.95031417     0.90300
C2996       C  0.55902269  0.15135478  0.53588844     0.90500
O2997       O  0.80407458  0.99232753  0.54809024    -0.71800
O2998       O  0.81072545  0.42605449  0.97225576    -0.71900
O2999       O  0.81269045  0.41686033  0.54083856    -0.71900
O3000       O  0.79977281  0.00402504  0.98007835    -0.72000
O3001       O  0.86015433  0.01365372  0.96888678    -0.71900
O3002       O  0.87350036  0.42736985  0.53738392    -0.71900
O3003       O  0.87193433  0.43248153  0.96684770    -0.71900
O3004       O  0.86447507  0.00526459  0.53867746    -0.71900
Ni3005     Ni  0.80492817  0.45958809  0.51018439     1.25400
Ni3006     Ni  0.86985185  0.47002891  0.50233908     1.25400
C3007       C  0.83349974  0.00860743  0.55657191     0.90300
C3008       C  0.84244122  0.41684647  0.95759868     0.90300
C3009       C  0.84422971  0.40941905  0.55160610     0.90300
C3010       C  0.82651050  0.02392266  0.96423952     0.90500
O3011       O  0.00483658  0.38158070  0.50644031    -0.71800
O3012       O  0.58856698  0.36216806  0.93960661    -0.71900
O3013       O  0.01188095  0.35144385  0.94256392    -0.71900
O3014       O  0.57720855  0.39769317  0.50095625    -0.72000
O3015       O  0.58250931  0.34151483  0.52878640    -0.71900
O3016       O  0.52302664  0.29309757  0.96400365    -0.71900
O3017       O  0.59738349  0.30675635  0.96737107    -0.71900
O3018       O  0.51096037  0.32156470  0.52696868    -0.71900
Ni3019     Ni  0.54543110  0.37515969  0.97106768     1.25400
Ni3020     Ni  0.55396891  0.31372875  0.99749683     1.25400
C3021       C  0.99646895  0.35450557  0.52939473     0.90300
C3022       C  0.60643817  0.33032079  0.94237527     0.90300
C3023       C  0.00654392  0.31519655  0.94288868     0.90300
C3024       C  0.58681518  0.37847200  0.52691997     0.90500
N3025       N  0.83410218  0.57996610  0.41467149    -0.00900
C3026       C  0.81443614  0.55524448  0.43836914     0.01700
C3027       C  0.78104004  0.54790040  0.42559082    -0.21200
C3028       C  0.78147815  0.56344158  0.39314361    -0.21400
C3029       C  0.81478472  0.58215723  0.38659942     0.01600
H3030       H  0.75974059  0.52916183  0.43753429     0.15400
H3031       H  0.76185841  0.55712472  0.37510912     0.15400
N3032       N  0.91854554  0.54090887  0.37415857    -0.00900
C3033       C  0.92567563  0.50898030  0.39257587     0.01700
C3034       C  0.89405130  0.48710657  0.40044865    -0.21200
C3035       C  0.86614782  0.50625633  0.38566809    -0.21400
C3036       C  0.88258617  0.53883142  0.36943071     0.01600
H3037       H  0.89285701  0.95800303  0.41084914     0.15400
H3038       H  0.83821000  0.49575789  0.38405721     0.15400
N3039       N  0.92433088  0.62045472  0.41168238    -0.00900
C3040       C  0.93436490  0.65471936  0.42393428     0.01700
C3041       C  0.92806859  0.68473077  0.40201791    -0.21200
C3042       C  0.92114850  0.66846291  0.37264981    -0.21400
C3043       C  0.92270141  0.62888187  0.37798501     0.01600
H3044       H  0.43247353  0.71451669  0.40595290     0.15400
H3045       H  0.92052469  0.68432373  0.34921888     0.15400
N3046       N  0.85833889  0.61074214  0.42091633    -0.00900
C3047       C  0.84668788  0.63815019  0.44287976     0.01700
C3048       C  0.86575800  0.63267482  0.47130909    -0.21200
C3049       C  0.89077776  0.60392590  0.46536737    -0.21400
C3050       C  0.89240533  0.60115228  0.43053839     0.01600
H3051       H  0.86809244  0.65312266  0.49039177     0.15400
H3052       H  0.91377743  0.59907066  0.48053374     0.15400
N3053       N  0.94027582  0.60466569  0.35244560    -0.00900
C3054       C  0.95873181  0.61632948  0.32235873     0.01700
C3055       C  0.97563596  0.58632685  0.30643385    -0.21200
C3056       C  0.96536254  0.55437386  0.32609002    -0.21400
C3057       C  0.94466828  0.56617004  0.35478291     0.01600
H3058       H  0.98767237  0.58667117  0.28042994     0.15400
H3059       H  0.96690535  0.52589854  0.31670784     0.15400
N3060       N  0.83371714  0.58308663  0.35313555    -0.00900
C3061       C  0.82410138  0.59777768  0.32295886     0.01700
C3062       C  0.85181349  0.59159930  0.29770074    -0.21200
C3063       C  0.87750936  0.56926115  0.31184842    -0.21400
C3064       C  0.86542722  0.56446911  0.34564277     0.01600
H3065       H  0.85083560  0.59822441  0.27091356     0.15400
H3066       H  0.90060601  0.55566614  0.29833711     0.15400
N3067       N  0.61527127  0.67029089  0.39787336    -0.00900
C3068       C  0.59527430  0.68930092  0.42341468     0.01700
C3069       C  0.61756992  0.71484311  0.43706730    -0.21200
C3070       C  0.65224892  0.71021259  0.42256479    -0.21400
C3071       C  0.65176120  0.67787847  0.40364073     0.01600
H3072       H  0.61041979  0.73190587  0.45864202     0.15400
H3073       H  0.67540827  0.72378981  0.43241117     0.15400
N3074       N  0.57172954  0.59461028  0.38555457    -0.00900
C3075       C  0.54897416  0.57141152  0.40689324     0.01700
C3076       C  0.51468052  0.58811813  0.41125269    -0.21200
C3077       C  0.51738652  0.62370160  0.39480886    -0.21400
C3078       C  0.55318294  0.62757501  0.38229373     0.01600
H3079       H  0.48897558  0.57338714  0.42034864     0.15400
H3080       H  0.49596083  0.64363760  0.38964021     0.15400
N3081       N  0.64574461  0.58385387  0.41411964    -0.00900
C3082       C  0.63568714  0.55122253  0.43391998     0.01700
C3083       C  0.63642373  0.51951577  0.41463963    -0.21200
C3084       C  0.64913491  0.53167974  0.38306948    -0.21400
C3085       C  0.65087782  0.57128252  0.38260586     0.01600
H3086       H  0.63113646  0.48984338  0.42311629     0.15400
H3087       H  0.64888371  0.51478214  0.36137898     0.15400
N3088       N  0.67830507  0.64814978  0.41349489    -0.00900
C3089       C  0.71287822  0.65478245  0.42423204     0.01700
C3090       C  0.73002671  0.62233423  0.43492915    -0.21200
C3091       C  0.70631444  0.59378974  0.43148449    -0.21400
C3092       C  0.67410802  0.60948210  0.42195283     0.01600
H3093       H  0.75754352  0.61995529  0.44343112     0.15400
H3094       H  0.71171205  0.56371765  0.43409097     0.15400
N3095       N  0.63461076  0.59091352  0.35589597    -0.00900
C3096       C  0.64776999  0.58392548  0.32384906     0.01700
C3097       C  0.62095943  0.56560264  0.30775267    -0.21200
C3098       C  0.58845495  0.56755344  0.32822126    -0.21400
C3099       C  0.59780144  0.58325590  0.35771435     0.01600
H3100       H  0.62432583  0.55337967  0.28325898     0.15400
H3101       H  0.56116530  0.55976732  0.32163287     0.15400
N3102       N  0.60179896  0.67264253  0.36414857    -0.00900
C3103       C  0.62109779  0.67173805  0.33204722     0.01700
C3104       C  0.59795471  0.65397788  0.31115119    -0.21200
C3105       C  0.56321573  0.65200460  0.32681797    -0.21400
C3106       C  0.56753987  0.65852949  0.35986998     0.01600
H3107       H  0.60350281  0.64928781  0.28454720     0.15400
H3108       H  0.54011769  0.63758174  0.31712555     0.15400
N3109       N  0.69586399  0.91602981  0.41170341    -0.00900
C3110       C  0.71156457  0.94244536  0.42992760     0.01700
C3111       C  0.74569965  0.95408329  0.41505939    -0.21200
C3112       C  0.74906532  0.93949331  0.38419303    -0.21400
C3113       C  0.71651773  0.91961237  0.38094721     0.01600
H3114       H  0.76594119  0.97196066  0.42484371     0.15400
H3115       H  0.76983846  0.94942270  0.36438505     0.15400
N3116       N  0.63798370  0.90522682  0.35898060    -0.00900
C3117       C  0.60537393  0.90396781  0.37705382     0.01700
C3118       C  0.58527521  0.87231679  0.36939407    -0.21200
C3119       C  0.60657980  0.85396953  0.34543339    -0.21400
C3120       C  0.63937544  0.87455601  0.34064314     0.01600
H3121       H  0.55753212  0.86406851  0.37933002     0.15400
H3122       H  0.59921547  0.82754244  0.33476247     0.15400
N3123       N  0.66458504  0.82703008  0.39767952    -0.00900
C3124       C  0.63079852  0.81498030  0.41337281     0.01700
C3125       C  0.61755654  0.78583759  0.39563451    -0.21200
C3126       C  0.64372736  0.77890377  0.36957774    -0.21400
C3127       C  0.67109473  0.80658255  0.36948394     0.01600
H3128       H  0.59057263  0.77216485  0.40015224     0.15400
H3129       H  0.64021210  0.75907610  0.35041223     0.15400
N3130       N  0.69331713  0.84519438  0.41308582    -0.00900
C3131       C  0.71065405  0.82357989  0.43656631     0.01700
C3132       C  0.70407738  0.83811406  0.46798873    -0.21200
C3133       C  0.68721200  0.87214427  0.46326456    -0.21400
C3134       C  0.68525899  0.87861041  0.42839683     0.01600
H3135       H  0.71440543  0.82755641  0.49143535     0.15400
H3136       H  0.68431805  0.89174955  0.48320924     0.15400
N3137       N  0.68635863  0.82553147  0.33789898    -0.00900
C3138       C  0.69942390  0.81041334  0.30867662     0.01700
C3139       C  0.71016690  0.83981303  0.28531110    -0.21200
C3140       C  0.69037206  0.87090320  0.29542802    -0.21400
C3141       C  0.67451037  0.85994338  0.32708670     0.01600
H3142       H  0.71659518  0.83514829  0.25882255     0.15400
H3143       H  0.68232731  0.89455394  0.27902905     0.15400
N3144       N  0.69899511  0.92969282  0.35068467    -0.00900
C3145       C  0.71524905  0.94726115  0.32209844     0.01700
C3146       C  0.68962527  0.96839604  0.30544755    -0.21200
C3147       C  0.65610255  0.96067146  0.32294783    -0.21400
C3148       C  0.66254470  0.93648229  0.35056071     0.01600
H3149       H  0.69380434  0.98275320  0.28053640     0.15400
H3150       H  0.62966828  0.96657487  0.31320421     0.22600
N3151       N  0.94483550  0.88021036  0.35180958    -0.00900
C3152       C  0.98119206  0.87803927  0.35639868     0.01700
C3153       C  0.99908039  0.85409082  0.33383260    -0.21200
C3154       C  0.97215781  0.83881061  0.31657416    -0.21400
C3155       C  0.93895540  0.85341567  0.33005124     0.01600
H3156       H  0.52843890  0.84890001  0.32968451     0.15400
H3157       H  0.97578630  0.81519459  0.30003140     0.15400
N3158       N  0.87364066  0.87842164  0.40756180    -0.00900
C3159       C  0.84321953  0.89005356  0.42813988     0.01700
C3160       C  0.81240420  0.88879969  0.41055441    -0.21200
C3161       C  0.82489342  0.88967676  0.37697322    -0.21400
C3162       C  0.86306954  0.88841840  0.37553654     0.01600
H3163       H  0.78440588  0.89294061  0.42099052     0.15400
H3164       H  0.80806828  0.89655173  0.35654384     0.15400
N3165       N  0.95044324  0.81081044  0.40498535    -0.00900
C3166       C  0.98385337  0.79856480  0.41651491     0.01700
C3167       C  0.99812832  0.76932077  0.39730730    -0.21200
C3168       C  0.97435551  0.76312006  0.37299096    -0.21400
C3169       C  0.94494860  0.78767948  0.37832798     0.01600
H3170       H  0.52415050  0.75489480  0.39984220     0.15400
H3171       H  0.97852190  0.74298036  0.35330466     0.15400
N3172       N  0.91647351  0.79281589  0.35454551    -0.00900
C3173       C  0.89557886  0.76733560  0.33929005     0.01700
C3174       C  0.86629287  0.78741123  0.32654634    -0.21200
C3175       C  0.87783475  0.82475162  0.32269639    -0.21400
C3176       C  0.90908474  0.82666635  0.33939768     0.01600
H3177       H  0.84627866  0.77600861  0.31083324     0.15400
H3178       H  0.86956860  0.84492420  0.30360496     0.15400
N3179       N  0.88716130  0.83960573  0.41376069    -0.00900
C3180       C  0.86769999  0.81678559  0.43884662     0.01700
C3181       C  0.88570088  0.81597277  0.46760318    -0.21200
C3182       C  0.92049209  0.83001286  0.45828489    -0.21400
C3183       C  0.92287584  0.83534317  0.42315858     0.01600
H3184       H  0.87682948  0.80000291  0.49065707     0.15400
H3185       H  0.94294039  0.82474298  0.47395206     0.15400
N3186       N  0.88614832  0.91301144  0.35038721    -0.00900
C3187       C  0.87635188  0.94102707  0.32661330     0.01700
C3188       C  0.90711181  0.96285452  0.31502777    -0.21200
C3189       C  0.93674382  0.94556383  0.32830964    -0.21400
C3190       C  0.92355022  0.91476141  0.34961709     0.01600
H3191       H  0.90923686  0.98340617  0.29351964     0.15400
H3192       H  0.96496123  0.95046615  0.31778472     0.15400
N3193       N  0.61557702  0.88709405  0.08302725    -0.00900
C3194       C  0.59667780  0.90055567  0.05697956     0.01700
C3195       C  0.57624766  0.93145692  0.06818773    -0.21200
C3196       C  0.57910291  0.93238134  0.10286651    -0.21400
C3197       C  0.60338110  0.90390297  0.11224297     0.01600
H3198       H  0.55536336  0.94619111  0.05469569     0.15400
H3199       H  0.55910956  0.94642733  0.11947112     0.15400
N3200       N  0.63263432  0.90843861  0.18797664    -0.00900
C3201       C  0.61599025  0.94174134  0.19967368     0.01700
C3202       C  0.64074355  0.96146803  0.21711103    -0.21200
C3203       C  0.67325887  0.94184030  0.21567649    -0.21400
C3204       C  0.66810554  0.91012991  0.19733201     0.01600
H3205       H  0.63583477  0.98834994  0.22912932     0.15400
H3206       H  0.69801290  0.95114247  0.22599420     0.15400
N3207       N  0.69619803  0.88927861  0.09413437    -0.00900
C3208       C  0.71031709  0.92182308  0.07628742     0.01700
C3209       C  0.72986475  0.94388535  0.09674498    -0.21200
C3210       C  0.72526478  0.92737647  0.12820682    -0.21400
C3211       C  0.70470457  0.89427605  0.12632661     0.01600
H3212       H  0.74246358  0.97192585  0.09064198     0.15400
H3213       H  0.73662565  0.93818032  0.15022882     0.15400
N3214       N  0.67657697  0.85734442  0.08278001    -0.00900
C3215       C  0.68614397  0.81947210  0.08424195     0.01700
C3216       C  0.65605395  0.79554700  0.08259818    -0.21200
C3217       C  0.62638174  0.81815753  0.08043973    -0.21400
C3218       C  0.63939035  0.85525969  0.08124656     0.01600
H3219       H  0.65589852  0.76456301  0.08215583     0.15400
H3220       H  0.59823053  0.80804838  0.07988674     0.15400
N3221       N  0.69750157  0.88470715  0.18638555    -0.00900
C3222       C  0.72874377  0.87487187  0.20113024     0.01700
C3223       C  0.74391882  0.84340616  0.18588308    -0.21200
C3224       C  0.72688802  0.84000468  0.15697476    -0.21400
C3225       C  0.70016781  0.86791436  0.15620365     0.01600
H3226       H  0.76985096  0.82997829  0.19094260     0.15400
H3227       H  0.74246258  0.82985144  0.13519080     0.15400
N3228       N  0.61696138  0.87658303  0.17239589    -0.00900
C3229       C  0.61746975  0.83715009  0.18186139     0.01700
C3230       C  0.59435078  0.81821128  0.16269186    -0.21200
C3231       C  0.57982795  0.84435678  0.14126787    -0.21400
C3232       C  0.59620378  0.87943774  0.14486436     0.01600
H3233       H  0.58891524  0.78775827  0.16389523     0.15400
H3234       H  0.56419612  0.83684217  0.12073862     0.15400
N3235       N  0.87140165  0.86482578  0.09802375    -0.00900
C3236       C  0.84335087  0.88434002  0.08416277     0.01700
C3237       C  0.81307352  0.88475716  0.10747553    -0.21200
C3238       C  0.82383925  0.87044726  0.13768681    -0.21400
C3239       C  0.86141806  0.86302240  0.13299342     0.01600
H3240       H  0.78738653  0.89876080  0.10391241     0.15400
H3241       H  0.80852021  0.87485164  0.16164285     0.15400
N3242       N  0.94813657  0.87516966  0.17472835    -0.00900
C3243       C  0.97424894  0.89458127  0.19085010     0.01700
C3244       C  0.99185805  0.86896090  0.21169413    -0.21200
C3245       C  0.97705799  0.83328463  0.20875925    -0.21400
C3246       C  0.94968332  0.83782462  0.18686832     0.01600
H3247       H  0.51436393  0.87547431  0.22677567     0.15400
H3248       H  0.48807914  0.80710000  0.21915447     0.15400
N3249       N  0.94996815  0.84097717  0.07962060    -0.00900
C3250       C  0.97865569  0.86198262  0.06354103     0.01700
C3251       C  0.00304153  0.86829349  0.08760989    -0.21200
C3252       C  0.99070030  0.84813022  0.11710864    -0.21400
C3253       C  0.95792745  0.83095377  0.11152907     0.01600
H3254       H  0.53059846  0.87844880  0.08259102     0.15400
H3255       H  0.00547663  0.84413774  0.13935905     0.15400
N3256       N  0.88346542  0.83132488  0.08089465    -0.00900
C3257       C  0.86341583  0.80105242  0.06997421     0.01700
C3258       C  0.88664991  0.77893886  0.04960367    -0.21200
C3259       C  0.92082033  0.79588666  0.04614047    -0.21400
C3260       C  0.91823497  0.82735461  0.06556052     0.01600
H3261       H  0.87929539  0.75274127  0.03818107     0.15400
H3262       H  0.94573826  0.78396137  0.03400670     0.15400
N3263       N  0.93370529  0.80643812  0.17071723    -0.00900
C3264       C  0.91295732  0.77560478  0.18469592     0.01700
C3265       C  0.90126426  0.75476259  0.15891741    -0.21200
C3266       C  0.91669968  0.77173291  0.12895404    -0.21400
C3267       C  0.93567671  0.80415121  0.13659368     0.01600
H3268       H  0.88794609  0.72674318  0.16164434     0.15400
H3269       H  0.91706838  0.75886489  0.10495978     0.15400
N3270       N  0.88486474  0.87641324  0.15958967    -0.00900
C3271       C  0.87257840  0.90765105  0.17662486     0.01700
C3272       C  0.89102142  0.94056921  0.16301200    -0.21200
C3273       C  0.92101073  0.92786684  0.14400556    -0.21400
C3274       C  0.92072326  0.88889135  0.15201510     0.01600
H3275       H  0.88694916  0.96974981  0.17049628     0.15400
H3276       H  0.94447054  0.94557021  0.13449392     0.15400
N3277       N  0.89318212  0.63328019  0.07672985    -0.00900
C3278       C  0.91800589  0.61512958  0.05421882     0.01700
C3279       C  0.92331453  0.57772439  0.06652406    -0.21200
C3280       C  0.91509002  0.57809508  0.10052329    -0.21400
C3281       C  0.90229629  0.61450054  0.10634843     0.01600
H3282       H  0.94172243  0.55683176  0.05502177     0.15400
H3283       H  0.92628069  0.55814483  0.11870523     0.15400
N3284       N  0.90708992  0.58879063  0.18295242    -0.00900
C3285       C  0.92147425  0.55759718  0.19974606     0.01700
C3286       C  0.89373045  0.53813120  0.22015259    -0.21200
C3287       C  0.86135165  0.55643742  0.21582938    -0.21400
C3288       C  0.87005689  0.58709626  0.19323980     0.01600
H3289       H  0.89647497  0.01177294  0.23534729     0.15400
H3290       H  0.83428196  0.54692610  0.22679223     0.15400
N3291       N  0.83648390  0.56542976  0.09492047    -0.00900
C3292       C  0.83222917  0.52737508  0.08961544     0.01700
C3293       C  0.82558533  0.50688123  0.12027435    -0.21200
C3294       C  0.82563665  0.53294302  0.14517550    -0.21400
C3295       C  0.83230622  0.56889888  0.12919300     0.01600
H3296       H  0.82044423  0.97627966  0.12413095     0.15400
H3297       H  0.81914960  0.52628463  0.17191444     0.15400
N3298       N  0.85377282  0.63143986  0.07149349    -0.00900
C3299       C  0.83447700  0.65516926  0.04971087     0.01700
C3300       C  0.81234411  0.63250762  0.03162880    -0.21200
C3301       C  0.81357309  0.59591720  0.04425465    -0.21400
C3302       C  0.83719597  0.59621362  0.06929209     0.01600
H3303       H  0.79155060  0.64242098  0.01525522     0.15400
H3304       H  0.79518947  0.57290342  0.03889801     0.15400
N3305       N  0.84237626  0.60987948  0.17864041    -0.00900
C3306       C  0.82397520  0.63951737  0.19327816     0.01700
C3307       C  0.80825498  0.65978635  0.16745796    -0.21200
C3308       C  0.80916179  0.63644205  0.14006040    -0.21400
C3309       C  0.83059520  0.60555467  0.14763011     0.01600
H3310       H  0.79137927  0.68494386  0.17080443     0.15400
H3311       H  0.79171197  0.63845176  0.11946601     0.15400
N3312       N  0.92625007  0.62044960  0.16442455    -0.00900
C3313       C  0.94966607  0.64637335  0.17674016     0.01700
C3314       C  0.96222739  0.67288315  0.15098727    -0.21200
C3315       C  0.94380353  0.66571582  0.12331093    -0.21400
C3316       C  0.92133601  0.63407715  0.13211749     0.01600
H3317       H  0.97855606  0.69851604  0.15348287     0.15400
H3318       H  0.94638794  0.68216329  0.09930600     0.15400
N3319       N  0.60391112  0.66345499  0.08386674    -0.00900
C3320       C  0.58080529  0.64127016  0.06566778     0.01700
C3321       C  0.56167608  0.61304432  0.08598182    -0.21200
C3322       C  0.56452257  0.62224429  0.11779038    -0.21400
C3323       C  0.58805361  0.65332506  0.11624488     0.01600
H3324       H  0.54026310  0.59398798  0.07881855     0.15400
H3325       H  0.54552989  0.61249365  0.13902736     0.15400
N3326       N  0.64554372  0.58978416  0.09555600    -0.00900
C3327       C  0.63369258  0.55342138  0.09064131     0.01700
C3328       C  0.62383221  0.53398688  0.12130515    -0.21200
C3329       C  0.63079959  0.55832944  0.14604161    -0.21400
C3330       C  0.64423256  0.59210773  0.12954926     0.01600
H3331       H  0.61772010  0.50363059  0.12518174     0.15400
H3332       H  0.62994389  0.55061015  0.17286918     0.15400
N3333       N  0.59025530  0.62661658  0.18854042    -0.00900
C3334       C  0.56748041  0.60463421  0.21160168     0.01700
C3335       C  0.58422074  0.60161186  0.24147017    -0.21200
C3336       C  0.62103899  0.60954752  0.23341313    -0.21400
C3337       C  0.62371979  0.62202470  0.20020459     0.01600
H3338       H  0.57274779  0.58653332  0.26442728     0.15400
H3339       H  0.64325146  0.60471891  0.24927748     0.15400
N3340       N  0.65746814  0.62885740  0.17937288    -0.00900
C3341       C  0.68839013  0.64515853  0.18852874     0.01700
C3342       C  0.71208139  0.65309997  0.15998725    -0.21200
C3343       C  0.69715550  0.63724252  0.13347683    -0.21400
C3344       C  0.66332421  0.62221292  0.14621973     0.01600
H3345       H  0.73964616  0.66377111  0.15919553     0.15400
H3346       H  0.71177638  0.63275599  0.10906927     0.15400
N3347       N  0.58184667  0.66531675  0.17785938    -0.00900
C3348       C  0.56787197  0.69446767  0.19745133     0.01700
C3349       C  0.55211882  0.72093795  0.17586412    -0.21200
C3350       C  0.56236581  0.71173101  0.14297535    -0.21400
C3351       C  0.58195852  0.67815589  0.14487873     0.01600
H3352       H  0.53929600  0.74761845  0.18296452     0.15400
H3353       H  0.55505529  0.72720533  0.12019977     0.15400
N3354       N  0.64422891  0.65908818  0.07856365    -0.00900
C3355       C  0.66828746  0.68154515  0.05549471     0.01700
C3356       C  0.67801246  0.65916550  0.02831953    -0.21200
C3357       C  0.67229329  0.62173321  0.03949440    -0.21400
C3358       C  0.65468511  0.62249106  0.07168913     0.01600
H3359       H  0.69672467  0.66742991  0.00631363     0.15400
H3360       H  0.68347499  0.59830618  0.02579077     0.15400
O3361       O  0.73144113  0.77967278  0.10377145    -0.71800
O3362       O  0.79850440  0.69654159  0.08797085    -0.71900
O3363       O  0.80744610  0.77183806  0.09982136    -0.71900
O3364       O  0.71849235  0.70584641  0.09129470    -0.72000
O3365       O  0.72273001  0.72281044  0.03665050    -0.71900
O3366       O  0.80918188  0.78725965  0.04460970    -0.71900
O3367       O  0.80102030  0.71199114  0.03301188    -0.71900
O3368       O  0.73549016  0.79726171  0.04885044    -0.71900
Ni3369     Ni  0.76390332  0.73784329  0.09768418     1.25400
Ni3370     Ni  0.76726772  0.75509841  0.03892358     1.25400
C3371       C  0.72181725  0.80131844  0.07919828     0.90300
C3372       C  0.81225776  0.69094143  0.05779645     0.90300
C3373       C  0.82335034  0.78946721  0.07290004     0.90300
C3374       C  0.70418535  0.70520563  0.06240486     0.90500
O3375       O  0.63918584  0.79464672  0.29549125    -0.71800
O3376       O  0.57386409  0.73708912  0.24434877    -0.71900
O3377       O  0.60395233  0.73045768  0.30682305    -0.71900
O3378       O  0.60528694  0.81092323  0.23811700    -0.72000
O3379       O  0.65294067  0.78516793  0.20875186    -0.71900
O3380       O  0.65358989  0.70295344  0.28158251    -0.71900
O3381       O  0.62409412  0.71042934  0.21960394    -0.71900
O3382       O  0.68768794  0.76829613  0.26746592    -0.71900
Ni3383     Ni  0.60367678  0.76918530  0.27192309     1.25400
Ni3384     Ni  0.65628415  0.74086723  0.24303522     1.25400
C3385       C  0.67408606  0.78787759  0.29126980     0.90300
C3386       C  0.58905207  0.71331237  0.22319994     0.90300
C3387       C  0.62908183  0.70514390  0.30737693     0.90300
C3388       C  0.62855008  0.81251940  0.21208961     0.90500
O3389       O  0.71467544  0.59869164  0.22417387    -0.71800
O3390       O  0.77495495  0.57380743  0.29619990    -0.71900
O3391       O  0.70133230  0.57063952  0.28892446    -0.71900
O3392       O  0.78728520  0.59726084  0.23057794    -0.72000
O3393       O  0.78357571  0.65875889  0.24255854    -0.71900
O3394       O  0.69780898  0.63000863  0.30702488    -0.71900
O3395       O  0.77356208  0.63509778  0.30988831    -0.71900
O3396       O  0.70966123  0.65868212  0.24102244    -0.71900
Ni3397     Ni  0.74452628  0.58296422  0.25980388     1.25400
Ni3398     Ni  0.74084364  0.64781360  0.27620074     1.25400
C3399       C  0.70411082  0.63355053  0.21991688     0.90300
C3400       C  0.78713696  0.60163496  0.31214745     0.90300
C3401       C  0.68470543  0.59540068  0.30691041     0.90300
C3402       C  0.79851160  0.63185838  0.22486586     0.90500
O3403       O  0.97059980  0.68255752  0.22158828    -0.71800
O3404       O  0.94510313  0.74374545  0.29969508    -0.71900
O3405       O  0.97295208  0.67285126  0.28972287    -0.71900
O3406       O  0.94721799  0.75496080  0.23027009    -0.72000
O3407       O  0.89019758  0.73104857  0.23023763    -0.71900
O3408       O  0.91457649  0.65071879  0.29405107    -0.71900
O3409       O  0.88762944  0.72070794  0.29992320    -0.71900
O3410       O  0.91324163  0.65802043  0.22679502    -0.71900
Ni3411     Ni  0.96115070  0.71440309  0.26040020     1.25400
Ni3412     Ni  0.89933674  0.68957688  0.26305078     1.25400
C3413       C  0.94527508  0.66099099  0.21103914     0.90300
C3414       C  0.91117113  0.74172525  0.31270012     0.90300
C3415       C  0.94817704  0.64859282  0.30150555     0.90300
C3416       C  0.91599527  0.75485381  0.21798694     0.90500
O3417       O  0.84068898  0.88066005  0.23144813    -0.71800
O3418       O  0.76382108  0.90215178  0.30479568    -0.71900
O3419       O  0.76784839  0.87324614  0.24304227    -0.71900
O3420       O  0.83819987  0.90146343  0.29925850    -0.72000
O3421       O  0.83725093  0.96253588  0.28111090    -0.71900
O3422       O  0.76107789  0.93217852  0.22108149    -0.71900
O3423       O  0.76338478  0.96218339  0.28272471    -0.71900
O3424       O  0.83561554  0.94192463  0.21441389    -0.71900
Ni3425     Ni  0.80310461  0.88731283  0.27053666     1.25400
Ni3426     Ni  0.79955107  0.95198397  0.24907932     1.25400
C3427       C  0.84828940  0.90889423  0.20913077     0.90300
C3428       C  0.75010677  0.93638491  0.30372413     0.90300
C3429       C  0.75195293  0.89594665  0.22351344     0.90300
C3430       C  0.84830700  0.93560764  0.30179225     0.90500
O3431       O  0.82264080  0.69313353  0.40674280    -0.71800
O3432       O  0.75476625  0.78275437  0.40313736    -0.71900
O3433       O  0.83067537  0.77601363  0.40636101    -0.71900
O3434       O  0.74995692  0.70551277  0.39931306    -0.72000
O3435       O  0.74164253  0.69900287  0.45578261    -0.71900
O3436       O  0.82015651  0.77200003  0.46249393    -0.71900
O3437       O  0.74614531  0.77477277  0.45924406    -0.71900
O3438       O  0.81378840  0.69250183  0.46276882    -0.71900
Ni3439     Ni  0.79039029  0.73976391  0.40170630     1.25400
Ni3440     Ni  0.78035765  0.73462239  0.46184865     1.25400
C3441       C  0.82662152  0.67615597  0.43625449     0.90300
C3442       C  0.73799878  0.79181820  0.43174900     0.90300
C3443       C  0.83767808  0.78740311  0.43535776     0.90300
C3444       C  0.73372416  0.68989455  0.42633150     0.90500
O3445       O  0.56900805  0.97589993  0.16954004    -0.71800
O3446       O  0.97708889  0.53446301  0.16844231    -0.71900
O3447       O  0.54849749  0.55428529  0.17426583    -0.71900
O3448       O  0.99685520  0.95658411  0.16422377    -0.72000
O3449       O  0.98706139  0.94945875  0.22029866    -0.71900
O3450       O  0.53954214  0.54331856  0.22991244    -0.71900
O3451       O  0.96952786  0.52504477  0.22456344    -0.71900
O3452       O  0.55889260  0.96605137  0.22516145    -0.71900
Ni3453     Ni  0.52324852  0.00561396  0.16695099     1.25400
Ni3454     Ni  0.51358993  0.99570654  0.22671772     1.25400
C3455       C  0.57832998  0.95968775  0.19734769     0.90300
C3456       C  0.95875688  0.54002767  0.19697252     0.90300
C3457       C  0.55052585  0.56598863  0.20432327     0.90300
C3458       C  0.98452826  0.93636358  0.19107389     0.90500
O3459       O  0.98262054  0.49391572  0.36560219    -0.71800
O3460       O  0.57980255  0.96015749  0.36244195    -0.71900
O3461       O  0.01724291  0.93075089  0.34904737    -0.71900
O3462       O  0.54676189  0.52306900  0.37416148    -0.72000
O3463       O  0.54049740  0.50662371  0.42936863    -0.71900
O3464       O  0.99833910  0.91273391  0.40273684    -0.71900
O3465       O  0.56690578  0.93527554  0.41534865    -0.71900
O3466       O  0.97288218  0.48030759  0.42109093    -0.71900
Ni3467     Ni  0.53200699  0.97779549  0.36106965     1.25400
Ni3468     Ni  0.51981712  0.95779382  0.41975507     1.25400
C3469       C  0.96217263  0.49380309  0.39341232     0.90300
C3470       C  0.58608480  0.93694346  0.38684266     0.90300
C3471       C  0.00041933  0.90785131  0.37072485     0.90300
C3472       C  0.54790015  0.53111971  0.40428715     0.90500
O3473       O  0.71243067  0.98760896  0.47059927    -0.71800
O3474       O  0.67738189  0.53757889  0.04769268    -0.71900
O3475       O  0.71524092  0.97331863  0.03586373    -0.71900
O3476       O  0.67135749  0.55009165  0.48128472    -0.72000
O3477       O  0.61995604  0.51477900  0.48382819    -0.71900
O3478       O  0.66287178  0.93915947  0.04067498    -0.71900
O3479       O  0.62379557  0.50551072  0.05120549    -0.71900
O3480       O  0.66097033  0.95200559  0.47266888    -0.71900
Ni3481     Ni  0.69575543  0.01346148  0.00885587     1.25400
Ni3482     Ni  0.63980809  0.97649033  0.51243865     1.25400
C3483       C  0.69373662  0.96110711  0.45926458     0.90300
C3484       C  0.64475289  0.53174437  0.06118007     0.90300
C3485       C  0.69593202  0.94399048  0.04805267     0.90300
C3486       C  0.64071562  0.54177217  0.46970332     0.90500
O3487       O  0.55320821  0.64065995  0.45163491    -0.71800
O3488       O  0.97682026  0.60884331  0.02174151    -0.71900
O3489       O  0.97715693  0.62640391  0.45779873    -0.71900
O3490       O  0.55306063  0.62309839  0.01771573    -0.72000
O3491       O  0.53945733  0.68206907  0.03299644    -0.71900
O3492       O  0.96835182  0.68849165  0.46374329    -0.71900
O3493       O  0.96076208  0.66886685  0.03083318    -0.71900
O3494       O  0.54338492  0.70112830  0.46412174    -0.71900
Ni3495     Ni  0.51555569  0.62293611  0.48691716     1.25400
Ni3496     Ni  0.50283719  0.68762213  0.49862497     1.25400
C3497       C  0.56136720  0.67627016  0.44625554     0.90300
C3498       C  0.95327067  0.63258420  0.03479173     0.90300
C3499       C  0.96052851  0.65709903  0.45031219     0.90300
C3500       C  0.55902251  0.65135288  0.03588693     0.90500
O3501       O  0.80407243  0.49233306  0.04808776    -0.71800
O3502       O  0.81072766  0.92605435  0.47225502    -0.71900
O3503       O  0.81269433  0.91685741  0.04083638    -0.71900
O3504       O  0.79977273  0.50402585  0.48007535    -0.72000
O3505       O  0.86015450  0.51365398  0.46888596    -0.71900
O3506       O  0.87350378  0.92737008  0.03738314    -0.71900
O3507       O  0.87193658  0.93248106  0.46684778    -0.71900
O3508       O  0.86447377  0.50526623  0.03867644    -0.71900
Ni3509     Ni  0.80493013  0.95958627  0.01018505     1.25400
Ni3510     Ni  0.86985349  0.97002906  0.00233920     1.25400
C3511       C  0.83349827  0.50861139  0.05656995     0.90300
C3512       C  0.84244346  0.91684647  0.45759812     0.90300
C3513       C  0.84423355  0.90941770  0.05160419     0.90300
C3514       C  0.82651112  0.52392357  0.46423749     0.90500
O3515       O  0.00483857  0.88158544  0.00643562    -0.71800
O3516       O  0.58856908  0.86216887  0.43960467    -0.71900
O3517       O  0.01188385  0.85144727  0.44256032    -0.71900
O3518       O  0.57721054  0.89769455  0.00095397    -0.72000
O3519       O  0.58250874  0.84151650  0.02878532    -0.71900
O3520       O  0.52302812  0.79309857  0.46400134    -0.71900
O3521       O  0.59738415  0.80675682  0.46736921    -0.71900
O3522       O  0.51095935  0.82156836  0.02696518    -0.71900
Ni3523     Ni  0.54543300  0.87516094  0.47106471     1.25400
Ni3524     Ni  0.55396946  0.81372994  0.49749450     1.25400
C3525       C  0.99646904  0.85451074  0.02938974     0.90300
C3526       C  0.60643936  0.83032113  0.44237340     0.90300
C3527       C  0.00654619  0.81520012  0.44288550     0.90300
C3528       C  0.58681596  0.87847338  0.02691831     0.90500
N3529       N  0.83410174  0.57996455  0.91467141    -0.00900
C3530       C  0.81443571  0.55524293  0.93836897     0.01700
C3531       C  0.78103987  0.54789815  0.92559037    -0.21200
C3532       C  0.78147824  0.56343918  0.89314323    -0.21400
C3533       C  0.81478451  0.58215538  0.88659914     0.01600
H3534       H  0.75974044  0.52915946  0.93753382     0.15400
H3535       H  0.76185857  0.55712203  0.87510849     0.15400
N3536       N  0.91854525  0.54090813  0.87415977    -0.00900
C3537       C  0.92567583  0.50897973  0.89257720     0.01700
C3538       C  0.89405176  0.48710524  0.90044976    -0.21200
C3539       C  0.86614788  0.50625445  0.88566886    -0.21400
C3540       C  0.88258606  0.53882974  0.86943153     0.01600
H3541       H  0.89285500  0.95800387  0.91084759     0.15400
H3542       H  0.83821076  0.49575554  0.88405737     0.15400
N3543       N  0.92433076  0.62045408  0.91168258    -0.00900
C3544       C  0.93436438  0.65471859  0.92393507     0.01700
C3545       C  0.92806904  0.68473018  0.90201873    -0.21200
C3546       C  0.92114994  0.66846301  0.87264995    -0.21400
C3547       C  0.92270181  0.62888170  0.87798525     0.01600
H3548       H  0.43247380  0.71451712  0.90595220     0.15400
H3549       H  0.92052726  0.68432411  0.84921962     0.15400
N3550       N  0.85833890  0.61074049  0.92091612    -0.00900
C3551       C  0.84668812  0.63814829  0.94287964     0.01700
C3552       C  0.86575796  0.63267236  0.97130915    -0.21200
C3553       C  0.89077772  0.60392336  0.96536720    -0.21400
C3554       C  0.89240538  0.60115064  0.93053804     0.01600
H3555       H  0.86809262  0.65312003  0.99039184     0.15400
H3556       H  0.91377721  0.59906792  0.98053350     0.15400
N3557       N  0.94027486  0.60466488  0.85244569    -0.00900
C3558       C  0.95872968  0.61632801  0.82235819     0.01700
C3559       C  0.97563310  0.58632517  0.80643318    -0.21200
C3560       C  0.96536085  0.55437259  0.82609025    -0.21400
C3561       C  0.94466760  0.56616919  0.85478352     0.01600
H3562       H  0.98766836  0.58666906  0.78042883     0.15400
H3563       H  0.96690353  0.52589694  0.81670872     0.15400
N3564       N  0.83371707  0.58308454  0.85313543    -0.00900
C3565       C  0.82410120  0.59777463  0.82295840     0.01700
C3566       C  0.85181313  0.59159543  0.79770037    -0.21200
C3567       C  0.87750891  0.56925755  0.81184853    -0.21400
C3568       C  0.86542702  0.56446674  0.84564299     0.01600
H3569       H  0.85083532  0.59822013  0.77091317     0.15400
H3570       H  0.90060523  0.55566188  0.79833750     0.15400
N3571       N  0.61527218  0.67029017  0.89787276    -0.00900
C3572       C  0.59527532  0.68929984  0.92341458     0.01700
C3573       C  0.61757123  0.71484148  0.93706744    -0.21200
C3574       C  0.65225044  0.71021080  0.92256528    -0.21400
C3575       C  0.65176197  0.67787711  0.90364034     0.01600
H3576       H  0.61042126  0.73190408  0.95864270     0.15400
H3577       H  0.67540938  0.72378681  0.93241208     0.15400
N3578       N  0.57172798  0.59461191  0.88555297    -0.00900
C3579       C  0.54897140  0.57141337  0.90689060     0.01700
C3580       C  0.51467781  0.58812048  0.91124891    -0.21200
C3581       C  0.51738559  0.62370453  0.89480633    -0.21400
C3582       C  0.55318232  0.62757733  0.88229240     0.01600
H3583       H  0.48897237  0.57338996  0.92034327     0.15400
H3584       H  0.49596055  0.64364172  0.88963754     0.15400
N3585       N  0.64574308  0.58385280  0.91412000    -0.00900
C3586       C  0.63568404  0.55122287  0.93392155     0.01700
C3587       C  0.63641663  0.51951513  0.91464234    -0.21200
C3588       C  0.64912694  0.53167742  0.88307139    -0.21400
C3589       C  0.65087422  0.57128000  0.88260658     0.01600
H3590       H  0.63112722  0.48984402  0.92311993     0.15400
H3591       H  0.64887200  0.51477926  0.86138139     0.15400
N3592       N  0.67830579  0.64814785  0.91349344    -0.00900
C3593       C  0.71287945  0.65477982  0.92422957     0.01700
C3594       C  0.73002722  0.62233133  0.93492675    -0.21200
C3595       C  0.70631422  0.59378688  0.93148302    -0.21400
C3596       C  0.67410793  0.60948030  0.92195163     0.01600
H3597       H  0.75754405  0.61995210  0.94342894     0.15400
H3598       H  0.71171080  0.56371518  0.93409033     0.15400
N3599       N  0.63460982  0.59091266  0.85589578    -0.00900
C3600       C  0.64776973  0.58392385  0.82384930     0.01700
C3601       C  0.62095894  0.56560213  0.80775181    -0.21200
C3602       C  0.58845386  0.56755480  0.82821993    -0.21400
C3603       C  0.59780017  0.58325725  0.85771304     0.01600
H3604       H  0.62432516  0.55337977  0.78325881     0.15400
H3605       H  0.56116431  0.55977023  0.82163112     0.15400
N3606       N  0.60179984  0.67264303  0.86414799    -0.00900
C3607       C  0.62109893  0.67173808  0.83204677     0.01700
C3608       C  0.59795572  0.65397824  0.81115053    -0.21200
C3609       C  0.56321627  0.65200658  0.82681683    -0.21400
C3610       C  0.56754038  0.65853156  0.85986893     0.01600
H3611       H  0.60350423  0.64928747  0.78454696     0.15400
H3612       H  0.54011799  0.63758478  0.81712424     0.15400
N3613       N  0.69586610  0.91602962  0.91170325    -0.00900
C3614       C  0.71156652  0.94244525  0.92992738     0.01700
C3615       C  0.74570099  0.95408460  0.91505850    -0.21200
C3616       C  0.74906611  0.93949496  0.88419189    -0.21400
C3617       C  0.71651894  0.91961294  0.88094669     0.01600
H3618       H  0.76594220  0.97196202  0.92484254     0.15400
H3619       H  0.76983881  0.94942464  0.86438353     0.15400
N3620       N  0.63798442  0.90522588  0.85898135    -0.00900
C3621       C  0.60537451  0.90396630  0.87705467     0.01700
C3622       C  0.58527610  0.87231555  0.86939430    -0.21200
C3623       C  0.60658033  0.85396914  0.84543331    -0.21400
C3624       C  0.63937583  0.87455557  0.84064313     0.01600
H3625       H  0.55753232  0.86406708  0.87933015     0.15400
H3626       H  0.59921581  0.82754179  0.83476190     0.15400
N3627       N  0.66458633  0.82703032  0.89767914    -0.00900
C3628       C  0.63080027  0.81498033  0.91337316     0.01700
C3629       C  0.61755804  0.78583708  0.89563534    -0.21200
C3630       C  0.64372845  0.77890368  0.86957806    -0.21400
C3631       C  0.67109575  0.80658265  0.86948365     0.01600
H3632       H  0.59057446  0.77216425  0.90015333     0.15400
H3633       H  0.64021276  0.75907592  0.85041248     0.15400
N3634       N  0.69331911  0.84519402  0.91308523    -0.00900
C3635       C  0.71065599  0.82357891  0.93656529     0.01700
C3636       C  0.70408034  0.83811308  0.96798786    -0.21200
C3637       C  0.68721561  0.87214354  0.96326403    -0.21400
C3638       C  0.68526172  0.87861001  0.92839658     0.01600
H3639       H  0.71440879  0.82755530  0.99143417     0.15400
H3640       H  0.68432230  0.89174893  0.98320904     0.15400
N3641       N  0.68635915  0.82553138  0.83789842    -0.00900
C3642       C  0.69942412  0.81041336  0.80867601     0.01700
C3643       C  0.71016632  0.83981306  0.78531003    -0.21200
C3644       C  0.69037152  0.87090300  0.79542749    -0.21400
C3645       C  0.67451062  0.85994336  0.82708627     0.01600
H3646       H  0.71659386  0.83514831  0.75882182     0.15400
H3647       H  0.68232611  0.89455403  0.77902856     0.15400
N3648       N  0.69899534  0.92969283  0.85068456    -0.00900
C3649       C  0.71524847  0.94726068  0.82209787     0.01700
C3650       C  0.68962419  0.96839482  0.80544699    -0.21200
C3651       C  0.65610155  0.96067044  0.82294790    -0.21400
C3652       C  0.66254464  0.93648173  0.85056112     0.01600
H3653       H  0.69380263  0.98275121  0.78053558     0.15400
H3654       H  0.62966751  0.96657317  0.81320451     0.22600
N3655       N  0.94483560  0.88020980  0.85180971    -0.00900
C3656       C  0.98119205  0.87803859  0.85639933     0.01700
C3657       C  0.99908069  0.85408933  0.83383408    -0.21200
C3658       C  0.97215846  0.83880920  0.81657531    -0.21400
C3659       C  0.93895600  0.85341492  0.83005140     0.01600
H3660       H  0.52843847  0.84890092  0.82968269     0.15400
H3661       H  0.97578727  0.81519265  0.80003290     0.15400
N3662       N  0.87363995  0.87842166  0.90756193    -0.00900
C3663       C  0.84321890  0.89005404  0.92813980     0.01700
C3664       C  0.81240342  0.88879997  0.91055441    -0.21200
C3665       C  0.82489311  0.88967668  0.87697351    -0.21400
C3666       C  0.86306898  0.88841823  0.87553650     0.01600
H3667       H  0.78440534  0.89294124  0.92099036     0.15400
H3668       H  0.80806756  0.89655173  0.85654353     0.15400
N3669       N  0.95044161  0.81080954  0.90498558    -0.00900
C3670       C  0.98385158  0.79856390  0.91651523     0.01700
C3671       C  0.99812656  0.76931992  0.89730748    -0.21200
C3672       C  0.97435374  0.76311937  0.87299112    -0.21400
C3673       C  0.94494678  0.78767878  0.87832812     0.01600
H3674       H  0.52415170  0.75489500  0.89984284     0.15400
H3675       H  0.97852029  0.74297963  0.85330460     0.15400
N3676       N  0.91647207  0.79281592  0.85454540    -0.00900
C3677       C  0.89557748  0.76733614  0.83928904     0.01700
C3678       C  0.86629300  0.78741278  0.82654415    -0.21200
C3679       C  0.87783554  0.82475283  0.82269415    -0.21400
C3680       C  0.90908462  0.82666651  0.83939698     0.01600
H3681       H  0.84627894  0.77601057  0.81082980     0.15400
H3682       H  0.86957152  0.84492494  0.80360190     0.15400
N3683       N  0.88715999  0.83960553  0.91376070    -0.00900
C3684       C  0.86769837  0.81678563  0.93884678     0.01700
C3685       C  0.88569926  0.81597298  0.96760314    -0.21200
C3686       C  0.92049036  0.83001250  0.95828484    -0.21400
C3687       C  0.92287442  0.83534262  0.92315868     0.01600
H3688       H  0.87682789  0.80000223  0.99065731     0.15400
H3689       H  0.94293905  0.82474243  0.97395226     0.15400
N3690       N  0.88614807  0.91301073  0.85038700    -0.00900
C3691       C  0.87635156  0.94102643  0.82661295     0.01700
C3692       C  0.90711151  0.96285377  0.81502739    -0.21200
C3693       C  0.93674329  0.94556301  0.82830922    -0.21400
C3694       C  0.92355006  0.91476079  0.84961687     0.01600
H3695       H  0.90923648  0.98340565  0.79351914     0.15400
H3696       H  0.96496121  0.95046528  0.81778398     0.15400
N3697       N  0.61557685  0.88709298  0.58302608    -0.00900
C3698       C  0.59667712  0.90055442  0.55697877     0.01700
C3699       C  0.57624624  0.93145539  0.56818734    -0.21200
C3700       C  0.57910191  0.93237965  0.60286641    -0.21400
C3701       C  0.60338094  0.90390142  0.61224190     0.01600
H3702       H  0.55536177  0.94618881  0.55469609     0.15400
H3703       H  0.55910920  0.94642475  0.61947106     0.15400
N3704       N  0.63263464  0.90843799  0.68797518    -0.00900
C3705       C  0.61599046  0.94174108  0.69967193     0.01700
C3706       C  0.64074425  0.96146799  0.71710813    -0.21200
C3707       C  0.67325995  0.94184093  0.71567387    -0.21400
C3708       C  0.66810589  0.91012984  0.69732999     0.01600
H3709       H  0.63583550  0.98835093  0.72912631     0.15400
H3710       H  0.69801326  0.95114331  0.72599089     0.15400
N3711       N  0.69619796  0.88927760  0.59413331    -0.00900
C3712       C  0.71031747  0.92182175  0.57628609     0.01700
C3713       C  0.72986704  0.94388328  0.59674296    -0.21200
C3714       C  0.72526750  0.92737402  0.62820488    -0.21400
C3715       C  0.70470613  0.89427437  0.62632522     0.01600
H3716       H  0.74246602  0.97192306  0.59064003     0.15400
H3717       H  0.73662961  0.93817727  0.65022646     0.15400
N3718       N  0.67657720  0.85734339  0.58277906    -0.00900
C3719       C  0.68614450  0.81947100  0.58424083     0.01700
C3720       C  0.65605466  0.79554573  0.58259642    -0.21200
C3721       C  0.62638255  0.81815637  0.58043782    -0.21400
C3722       C  0.63939056  0.85525846  0.58124499     0.01600
H3723       H  0.65589952  0.76456183  0.58215402     0.15400
H3724       H  0.59823091  0.80804699  0.57988457     0.15400
N3725       N  0.69750190  0.88470659  0.68638428    -0.00900
C3726       C  0.72874345  0.87487110  0.70112972     0.01700
C3727       C  0.74391837  0.84340453  0.68588352    -0.21200
C3728       C  0.72688801  0.84000299  0.65697479    -0.21400
C3729       C  0.70016830  0.86791315  0.65620269     0.01600
H3730       H  0.76984961  0.82997637  0.69094369     0.15400
H3731       H  0.74246288  0.82984918  0.63519147     0.15400
N3732       N  0.61696131  0.87658225  0.67239495    -0.00900
C3733       C  0.61747005  0.83714930  0.68186088     0.01700
C3734       C  0.59435162  0.81821021  0.66269137    -0.21200
C3735       C  0.57982869  0.84435466  0.64126657    -0.21400
C3736       C  0.59620424  0.87943603  0.64486322     0.01600
H3737       H  0.58891602  0.78775649  0.66389541     0.15400
H3738       H  0.56419739  0.83683960  0.62073790     0.15400
N3739       N  0.87140350  0.86482432  0.59802429    -0.00900
C3740       C  0.84335221  0.88433803  0.58416339     0.01700
C3741       C  0.81307486  0.88475301  0.60747596    -0.21200
C3742       C  0.82384035  0.87044343  0.63768755    -0.21400
C3743       C  0.86141977  0.86302047  0.63299383     0.01600
H3744       H  0.78738647  0.89875532  0.60391261     0.15400
H3745       H  0.80852143  0.87484674  0.66164293     0.15400
N3746       N  0.94813731  0.87516985  0.67472936    -0.00900
C3747       C  0.97424854  0.89458174  0.69085212     0.01700
C3748       C  0.99185759  0.86896147  0.71169651    -0.21200
C3749       C  0.97705833  0.83328504  0.70876046    -0.21400
C3750       C  0.94968455  0.83782461  0.68686877     0.01600
H3751       H  0.51436331  0.87547357  0.72677480     0.15400
H3752       H  0.48807776  0.80709972  0.71915392     0.15400
N3753       N  0.94996977  0.84097659  0.57962010    -0.00900
C3754       C  0.97865637  0.86198338  0.56354036     0.01700
C3755       C  0.00304144  0.86829619  0.58760943    -0.21200
C3756       C  0.99070082  0.84813317  0.61710836    -0.21400
C3757       C  0.95792902  0.83095474  0.61152890     0.01600
H3758       H  0.53059966  0.87844274  0.58259164     0.15400
H3759       H  0.00547711  0.84414206  0.63935915     0.15400
N3760       N  0.88346708  0.83132372  0.58089499    -0.00900
C3761       C  0.86341743  0.80105110  0.56997455     0.01700
C3762       C  0.88665150  0.77893801  0.54960366    -0.21200
C3763       C  0.92082158  0.79588608  0.54614018    -0.21400
C3764       C  0.91823657  0.82735366  0.56556040     0.01600
H3765       H  0.87929678  0.75274062  0.53818022     0.15400
H3766       H  0.94573978  0.78396119  0.53400552     0.15400
N3767       N  0.93370744  0.80643817  0.67071712    -0.00900
C3768       C  0.91295955  0.77560440  0.68469535     0.01700
C3769       C  0.90126752  0.75476218  0.65891656    -0.21200
C3770       C  0.91670314  0.77173276  0.62895365    -0.21400
C3771       C  0.93567921  0.80415140  0.63659344     0.01600
H3772       H  0.88794942  0.72674240  0.66164328     0.15400
H3773       H  0.91707259  0.75886460  0.60495893     0.15400
N3774       N  0.88486555  0.87641260  0.65959025    -0.00900
C3775       C  0.87257820  0.90765041  0.67662475     0.01700
C3776       C  0.89102113  0.94056865  0.66301201    -0.21200
C3777       C  0.92101090  0.92786642  0.64400643    -0.21400
C3778       C  0.92072405  0.88889116  0.65201593     0.01600
H3779       H  0.88694835  0.96974937  0.67049611     0.15400
H3780       H  0.94447107  0.94557038  0.63449484     0.15400
N3781       N  0.89318262  0.63328025  0.57673026    -0.00900
C3782       C  0.91800640  0.61513008  0.55421888     0.01700
C3783       C  0.92331516  0.57772503  0.56652395    -0.21200
C3784       C  0.91509090  0.57809497  0.60052324    -0.21400
C3785       C  0.90229680  0.61450031  0.60634874     0.01600
H3786       H  0.94172345  0.55683239  0.55502128     0.15400
H3787       H  0.92628172  0.55814467  0.61870470     0.15400
N3788       N  0.90709017  0.58879001  0.68295273    -0.00900
C3789       C  0.92147408  0.55759617  0.69974661     0.01700
C3790       C  0.89372994  0.53812988  0.72015259    -0.21200
C3791       C  0.86135114  0.55643638  0.71582886    -0.21400
C3792       C  0.87005698  0.58709536  0.69323982     0.01600
H3793       H  0.89647374  0.01177246  0.73534615     0.15400
H3794       H  0.83428138  0.54692530  0.72679110     0.15400
N3795       N  0.83648456  0.56542940  0.59492034    -0.00900
C3796       C  0.83222949  0.52737480  0.58961509     0.01700
C3797       C  0.82558523  0.50688090  0.62027384    -0.21200
C3798       C  0.82563661  0.53294232  0.64517518    -0.21400
C3799       C  0.83230666  0.56889824  0.62919291     0.01600
H3800       H  0.82044297  0.97627948  0.62413181     0.15400
H3801       H  0.81914895  0.52628376  0.67191408     0.15400
N3802       N  0.85377338  0.63143966  0.57149369    -0.00900
C3803       C  0.83447759  0.65516883  0.54971113     0.01700
C3804       C  0.81234442  0.63250742  0.53162887    -0.21200
C3805       C  0.81357382  0.59591714  0.54425471    -0.21400
C3806       C  0.83719660  0.59621333  0.56929212     0.01600
H3807       H  0.79155110  0.64242068  0.51525568     0.15400
H3808       H  0.79519006  0.57290305  0.53889776     0.15400
N3809       N  0.84237668  0.60987899  0.67864026    -0.00900
C3810       C  0.82397538  0.63951658  0.69327820     0.01700
C3811       C  0.80825500  0.65978534  0.66745801    -0.21200
C3812       C  0.80916183  0.63644114  0.64006060    -0.21400
C3813       C  0.83059537  0.60555392  0.64763009     0.01600
H3814       H  0.79137942  0.68494311  0.67080457     0.15400
H3815       H  0.79171182  0.63845095  0.61946585     0.15400
N3816       N  0.92625046  0.62044858  0.66442514    -0.00900
C3817       C  0.94966678  0.64637229  0.67674059     0.01700
C3818       C  0.96222831  0.67288252  0.65098791    -0.21200
C3819       C  0.94380411  0.66571520  0.62331168    -0.21400
C3820       C  0.92133653  0.63407673  0.63211791     0.01600
H3821       H  0.97855670  0.69851487  0.65348362     0.15400
H3822       H  0.94638842  0.68216314  0.59930660     0.15400
N3823       N  0.60391243  0.66345532  0.58386578    -0.00900
C3824       C  0.58080640  0.64127060  0.56566696     0.01700
C3825       C  0.56167737  0.61304459  0.58598106    -0.21200
C3826       C  0.56452427  0.62224470  0.61778943    -0.21400
C3827       C  0.58805515  0.65332541  0.61624395     0.01600
H3828       H  0.54026434  0.59398836  0.57881799     0.15400
H3829       H  0.54553171  0.61249378  0.63902690     0.15400
N3830       N  0.64554449  0.58978394  0.59555512    -0.00900
C3831       C  0.63369183  0.55342183  0.59064026     0.01700
C3832       C  0.62383057  0.53398717  0.62130405    -0.21200
C3833       C  0.63079909  0.55832957  0.64604061    -0.21400
C3834       C  0.64423344  0.59210738  0.62954845     0.01600
H3835       H  0.61771753  0.50363171  0.62518047     0.15400
H3836       H  0.62994292  0.55061024  0.67286818     0.15400
N3837       N  0.59025597  0.62661686  0.68853940    -0.00900
C3838       C  0.56748059  0.60463511  0.71160096     0.01700
C3839       C  0.58422096  0.60161291  0.74146930    -0.21200
C3840       C  0.62103916  0.60954751  0.73341229    -0.21400
C3841       C  0.62372034  0.62202419  0.70020378     0.01600
H3842       H  0.57274757  0.58653477  0.76442689     0.15400
H3843       H  0.64325179  0.60471837  0.74927691     0.15400
N3844       N  0.65746882  0.62885695  0.67937232    -0.00900
C3845       C  0.68839012  0.64515926  0.68852857     0.01700
C3846       C  0.71208114  0.65310130  0.65998705    -0.21200
C3847       C  0.69715618  0.63724301  0.63347651    -0.21400
C3848       C  0.66332519  0.62221249  0.64621923     0.01600
H3849       H  0.73964593  0.66377392  0.65919547     0.15400
H3850       H  0.71177723  0.63275677  0.60906888     0.15400
N3851       N  0.58184820  0.66531711  0.67785838    -0.00900
C3852       C  0.56787272  0.69446773  0.69745038     0.01700
C3853       C  0.55211956  0.72093763  0.67586312    -0.21200
C3854       C  0.56236671  0.71173127  0.64297410    -0.21400
C3855       C  0.58195996  0.67815627  0.64487773     0.01600
H3856       H  0.53929585  0.74761805  0.68296373     0.15400
H3857       H  0.55505632  0.72720524  0.62019904     0.15400
N3858       N  0.64423021  0.65908804  0.57856278    -0.00900
C3859       C  0.66828894  0.68154482  0.55549397     0.01700
C3860       C  0.67801398  0.65916506  0.52831901    -0.21200
C3861       C  0.67229477  0.62173275  0.53949375    -0.21400
C3862       C  0.65468616  0.62249087  0.57168845     0.01600
H3863       H  0.69672681  0.66742925  0.50631317     0.15400
H3864       H  0.68347622  0.59830610  0.52579039     0.15400
O3865       O  0.73144195  0.77967218  0.60377097    -0.71800
O3866       O  0.79850506  0.69654083  0.58797102    -0.71900
O3867       O  0.80744730  0.77183708  0.59982151    -0.71900
O3868       O  0.71849323  0.70584604  0.59129436    -0.72000
O3869       O  0.72273166  0.72280999  0.53665012    -0.71900
O3870       O  0.80918332  0.78725914  0.54460994    -0.71900
O3871       O  0.80102178  0.71199088  0.53301208    -0.71900
O3872       O  0.73549148  0.79726114  0.54885002    -0.71900
Ni3873     Ni  0.76390420  0.73784265  0.59768408     1.25400
Ni3874     Ni  0.76726923  0.75509798  0.53892353     1.25400
C3875       C  0.72181809  0.80131772  0.57919770     0.90300
C3876       C  0.81225872  0.69094096  0.55779664     0.90300
C3877       C  0.82335182  0.78946624  0.57290033     0.90300
C3878       C  0.70418672  0.70520521  0.56240431     0.90500
O3879       O  0.63918607  0.79464634  0.79549107    -0.71800
O3880       O  0.57386448  0.73708918  0.74434799    -0.71900
O3881       O  0.60395268  0.73045734  0.80682238    -0.71900
O3882       O  0.60528741  0.81092318  0.73811672    -0.72000
O3883       O  0.65294110  0.78516781  0.70875156    -0.71900
O3884       O  0.65359048  0.70295346  0.78158198    -0.71900
O3885       O  0.62409456  0.71042932  0.71960348    -0.71900
O3886       O  0.68768824  0.76829610  0.76746557    -0.71900
Ni3887     Ni  0.60367713  0.76918509  0.77192260     1.25400
Ni3888     Ni  0.65628456  0.74086721  0.74303482     1.25400
C3889       C  0.67408630  0.78787735  0.79126953     0.90300
C3890       C  0.58905258  0.71331247  0.72319916     0.90300
C3891       C  0.62908249  0.70514386  0.80737641     0.90300
C3892       C  0.62855047  0.81251926  0.71208926     0.90500
O3893       O  0.71467525  0.59869163  0.72417328    -0.71800
O3894       O  0.77495465  0.57380551  0.79619906    -0.71900
O3895       O  0.70133185  0.57063847  0.78892386    -0.71900
O3896       O  0.78728488  0.59725983  0.73057735    -0.72000
O3897       O  0.78357589  0.65875761  0.74255883    -0.71900
O3898       O  0.69780902  0.63000714  0.80702517    -0.71900
O3899       O  0.77356219  0.63509555  0.80988835    -0.71900
O3900       O  0.70966145  0.65868177  0.74102264    -0.71900
Ni3901     Ni  0.74452593  0.58296328  0.75980322     1.25400
Ni3902     Ni  0.74084377  0.64781226  0.77620097     1.25400
C3903       C  0.70411099  0.63355071  0.71991661     0.90300
C3904       C  0.78713679  0.60163255  0.81214711     0.90300
C3905       C  0.68470529  0.59539920  0.80691040     0.90300
C3906       C  0.79851159  0.63185734  0.72486576     0.90500
O3907       O  0.97059994  0.68255653  0.72158892    -0.71800
O3908       O  0.94510226  0.74374452  0.79969536    -0.71900
O3909       O  0.97295062  0.67284997  0.78972337    -0.71900
O3910       O  0.94721887  0.75496012  0.73027037    -0.72000
O3911       O  0.89019839  0.73104850  0.73023672    -0.71900
O3912       O  0.91457471  0.65071834  0.79405097    -0.71900
O3913       O  0.88762839  0.72070798  0.79992250    -0.71900
O3914       O  0.91324160  0.65801991  0.72679476    -0.71900
Ni3915     Ni  0.96115036  0.71440210  0.76040070     1.25400
Ni3916     Ni  0.89933621  0.68957668  0.76305025     1.25400
C3917       C  0.94527534  0.66099009  0.71103948     0.90300
C3918       C  0.91117010  0.74172496  0.81269985     0.90300
C3919       C  0.94817520  0.64859169  0.80150550     0.90300
C3920       C  0.91599659  0.75485347  0.71798650     0.90500
O3921       O  0.84068842  0.88065940  0.73144788    -0.71800
O3922       O  0.76382063  0.90215143  0.80479532    -0.71900
O3923       O  0.76784778  0.87324556  0.74304198    -0.71900
O3924       O  0.83819935  0.90146291  0.79925826    -0.72000
O3925       O  0.83725046  0.96253535  0.78111059    -0.71900
O3926       O  0.76107788  0.93217782  0.72108080    -0.71900
O3927       O  0.76338422  0.96218284  0.78272388    -0.71900
O3928       O  0.83561536  0.94192400  0.71441360    -0.71900
Ni3929     Ni  0.80310405  0.88731225  0.77053637     1.25400
Ni3930     Ni  0.79955080  0.95198333  0.74907881     1.25400
C3931       C  0.84828913  0.90889355  0.70913060     0.90300
C3932       C  0.75010629  0.93638449  0.80372349     0.90300
C3933       C  0.75195259  0.89594599  0.72351293     0.90300
C3934       C  0.84830656  0.93560702  0.80179198     0.90500
O3935       O  0.82264164  0.69313151  0.90674231    -0.71800
O3936       O  0.75476781  0.78275283  0.90313637    -0.71900
O3937       O  0.83067631  0.77601160  0.90636092    -0.71900
O3938       O  0.74995807  0.70551102  0.89931158    -0.72000
O3939       O  0.74164384  0.69899959  0.95578106    -0.71900
O3940       O  0.82015561  0.77199906  0.96249369    -0.71900
O3941       O  0.74614463  0.77476959  0.95924287    -0.71900
O3942       O  0.81378963  0.69250060  0.96276836    -0.71900
Ni3943     Ni  0.79039144  0.73976202  0.90170553     1.25400
Ni3944     Ni  0.78035787  0.73462020  0.96184781     1.25400
C3945       C  0.82662249  0.67615441  0.93625425     0.90300
C3946       C  0.73799956  0.79181618  0.93174786     0.90300
C3947       C  0.83767763  0.78740207  0.93535758     0.90300
C3948       C  0.73372556  0.68989190  0.92632973     0.90500
O3949       O  0.56900743  0.97589973  0.66953939    -0.71800
O3950       O  0.97708862  0.53446215  0.66844273    -0.71900
O3951       O  0.54849674  0.55428595  0.67426585    -0.71900
O3952       O  0.99685483  0.95658415  0.66422516    -0.72000
O3953       O  0.98706107  0.94945970  0.72030014    -0.71900
O3954       O  0.53954158  0.54332020  0.72991259    -0.71900
O3955       O  0.96952757  0.52504324  0.72456380    -0.71900
O3956       O  0.55889284  0.96605043  0.72516072    -0.71900
Ni3957     Ni  0.52324798  0.00561402  0.66695116     1.25400
Ni3958     Ni  0.51359004  0.99570558  0.72671779     1.25400
C3959       C  0.57832983  0.95968702  0.69734662     0.90300
C3960       C  0.95875660  0.54002648  0.69697301     0.90300
C3961       C  0.55052545  0.56598975  0.70432302     0.90300
C3962       C  0.98452795  0.93636406  0.69107557     0.90500
O3963       O  0.98262167  0.49391689  0.86560373    -0.71800
O3964       O  0.57980278  0.96015538  0.86244252    -0.71900
O3965       O  0.01724294  0.93075008  0.84904698    -0.71900
O3966       O  0.54675909  0.52307025  0.87415912    -0.72000
O3967       O  0.54049590  0.50662577  0.92936650    -0.71900
O3968       O  0.99833907  0.91273420  0.90273672    -0.71900
O3969       O  0.56690593  0.93527356  0.91534928    -0.71900
O3970       O  0.97288220  0.48030606  0.92109199    -0.71900
Ni3971     Ni  0.53200792  0.97779497  0.86107073     1.25400
Ni3972     Ni  0.51981750  0.95779208  0.91975585     1.25400
C3973       C  0.96217319  0.49380304  0.89341362     0.90300
C3974       C  0.58608506  0.93694159  0.88684329     0.90300
C3975       C  0.00041941  0.90785091  0.87072487     0.90300
C3976       C  0.54789744  0.53112157  0.90428466     0.90500
O3977       O  0.71243191  0.98760871  0.97059924    -0.71800
O3978       O  0.67738179  0.53757906  0.54769243    -0.71900
O3979       O  0.71524036  0.97331844  0.53586349    -0.71900
O3980       O  0.67135577  0.55009242  0.98128536    -0.72000
O3981       O  0.61995395  0.51478005  0.98383021    -0.71900
O3982       O  0.66287115  0.93915937  0.54067480    -0.71900
O3983       O  0.62379559  0.50551087  0.55120423    -0.71900
O3984       O  0.66097239  0.95200407  0.97266894    -0.71900
Ni3985     Ni  0.69575504  0.01346179  0.50885608     1.25400
Ni3986     Ni  0.63980898  0.97648938  0.01243787     1.25400
C3987       C  0.69373842  0.96110647  0.95926455     0.90300
C3988       C  0.64475258  0.53174456  0.56117921     0.90300
C3989       C  0.69593158  0.94399009  0.54805217     0.90300
C3990       C  0.64071345  0.54177294  0.96970475     0.90500
O3991       O  0.55320861  0.64065885  0.95163451    -0.71800
O3992       O  0.97682043  0.60884421  0.52174108    -0.71900
O3993       O  0.97715652  0.62640305  0.95779931    -0.71900
O3994       O  0.55306072  0.62309889  0.51771556    -0.72000
O3995       O  0.53945743  0.68206949  0.53299654    -0.71900
O3996       O  0.96835128  0.68849069  0.96374408    -0.71900
O3997       O  0.96076204  0.66886774  0.53083252    -0.71900
O3998       O  0.54338587  0.70112731  0.96412147    -0.71900
Ni3999     Ni  0.51555590  0.62293564  0.98691692     1.25400
Ni4000     Ni  0.50283766  0.68762180  0.99862444     1.25400
C4001       C  0.56136802  0.67626902  0.94625525     0.90300
C4002       C  0.95327084  0.63258509  0.53479142     0.90300
C4003       C  0.96052796  0.65709803  0.95031294     0.90300
C4004       C  0.55902288  0.65135341  0.53588662     0.90500
O4005       O  0.80407244  0.49233345  0.54808721    -0.71800
O4006       O  0.81072706  0.92605587  0.97225426    -0.71900
O4007       O  0.81269531  0.91685566  0.54083727    -0.71900
O4008       O  0.79977249  0.50402494  0.98007591    -0.72000
O4009       O  0.86015419  0.51365356  0.96888627    -0.71900
O4010       O  0.87350467  0.92736900  0.53738386    -0.71900
O4011       O  0.87193600  0.93248212  0.96684707    -0.71900
O4012       O  0.86447388  0.50526614  0.53867601    -0.71900
Ni4013     Ni  0.80493065  0.95958454  0.51018590     1.25400
Ni4014     Ni  0.86985394  0.97002796  0.50233992     1.25400
C4015       C  0.83349841  0.50861139  0.55656952     0.90300
C4016       C  0.84244277  0.91684757  0.95759755     0.90300
C4017       C  0.84423473  0.90941621  0.55160499     0.90300
C4018       C  0.82651071  0.52392266  0.96423776     0.90500
O4019       O  0.00483979  0.88158621  0.50643511    -0.71800
O4020       O  0.58857126  0.86216939  0.93960522    -0.71900
O4021       O  0.01188203  0.85144637  0.94256075    -0.71900
O4022       O  0.57720915  0.89769351  0.50095342    -0.72000
O4023       O  0.58250752  0.84151534  0.52878462    -0.71900
O4024       O  0.52302971  0.79309956  0.96400158    -0.71900
O4025       O  0.59738588  0.80675736  0.96736982    -0.71900
O4026       O  0.51095812  0.82156727  0.52696513    -0.71900
Ni4027     Ni  0.54543483  0.87516185  0.97106491     1.25400
Ni4028     Ni  0.55397093  0.81373096  0.99749489     1.25400
C4029       C  0.99647030  0.85451151  0.52938929     0.90300
C4030       C  0.60644127  0.83032147  0.94237392     0.90300
C4031       C  0.00654451  0.81519914  0.94288580     0.90300
C4032       C  0.58681485  0.87847232  0.52691752     0.90500
loop_ 
_geom_bond_atom_site_label_1 
_geom_bond_atom_site_label_2 
_geom_bond_distance 
_geom_bond_site_symmetry_2 
_ccdc_geom_bond_type 
N1            C5   1.366       .  A
N1            C2   1.386       .  A
N1           N22   1.428       .  S
C2            C3   1.380       .  A
C2          C490   1.551       .  S
C3            C4   1.369       .  A
C3            H6   1.069       .  S
C4            C5   1.366       .  A
C4            H7   1.082       .  S
C5           N36   1.438       .  S
N8           C12   1.335       .  A
N8            C9   1.339       .  A
N8           C33   1.432       .  S
C9           C10   1.375   1_545  A
C9          C445   1.430   1_545  S
C10          C11   1.373   1_565  A
C10        H1021   1.074       .  S
C11          C12   1.381       .  A
C11          H14   1.082   1_545  S
C12          C40   1.449       .  S
H13        C1018   1.074       .  S
N15          C19   1.360       .  A
N15          C16   1.373       .  A
N15          C26   1.461       .  S
C16          C17   1.359       .  A
C16         C475   1.478       .  S
C17          C18   1.365       .  A
C17        H2036   1.072       .  S
C18          C19   1.388       .  A
C18          H21   1.059       .  S
C19          N29   1.460       .  S
H20        C2033   1.072       .  S
N22          C26   1.363       .  A
N22          C23   1.372       .  A
C23          C24   1.380       .  A
C23         C417   1.538       .  S
C24          C25   1.372       .  A
C24          H27   1.076       .  S
C25          C26   1.387       .  A
C25          H28   1.080       .  S
N29          C33   1.353       .  A
N29          C30   1.357       .  A
C30          C31   1.371       .  A
C30         C391   1.436       .  S
C31          C32   1.356       .  A
C31          H34   1.083       .  S
C32          C33   1.390       .  A
C32          H35   1.079       .  S
N36          C40   1.342       .  A
N36          C37   1.353       .  A
C37          C38   1.381       .  A
C37         C376   1.447       .  S
C38          C39   1.359       .  A
C38          H41   1.080       .  S
C39          C40   1.374       .  A
C39          H42   1.080       .  S
N43          C47   1.388       .  A
N43          C44   1.393       .  A
N43          N78   1.463       .  S
C44          C45   1.364       .  A
C44         C473   1.513       .  S
C45          C46   1.349       .  A
C45          H48   1.082       .  S
C46          C47   1.389       .  A
C46          H49   1.074       .  S
C47          N64   1.480       .  S
N50          C54   1.342       .  A
N50          C51   1.359       .  A
N50          C75   1.462       .  S
C51          C52   1.377       .  A
C51         C448   1.416       .  S
C52          C53   1.370       .  A
C52          H55   1.084   1_455  S
C53          C54   1.350       .  A
C53          H56   1.072   1_455  S
C54          C82   1.427       .  S
N57          C61   1.345       .  A
N57          C58   1.376       .  A
N57          C68   1.423       .  S
C58          C59   1.377       .  A
C58         C462   1.468       .  S
C59          C60   1.342       .  A
C59          H62   1.082   1_545  S
C60          C61   1.382       .  A
C60          H63   1.070       .  S
C61          N71   1.407       .  S
N64          C68   1.377       .  A
N64          C65   1.380       .  A
C65          C66   1.361       .  A
C65         C420   1.445       .  S
C66          C67   1.331       .  A
C66          H69   1.083       .  S
C67          C68   1.367       .  A
C67          H70   1.070       .  S
N71          C75   1.353       .  A
N71          C72   1.353       .  A
C72          C73   1.380       .  A
C72         C377   1.486       .  S
C73          C74   1.374       .  A
C73          H76   1.080       .  S
C74          C75   1.386       .  A
C74          H77   1.081       .  S
N78          C82   1.360       .  A
N78          C79   1.400       .  A
C79          C80   1.395       .  A
C79         C363   1.491       .  S
C80          C81   1.353       .  A
C80          H83   1.078       .  S
C81          C82   1.366       .  A
C81          H84   1.083       .  S
N85          C89   1.373       .  A
N85          C86   1.354       .  A
N85         C110   1.465       .  S
C86          C87   1.371       .  A
C86         C459   1.466       .  S
C87          C88   1.347       .  A
C87          H90   1.071       .  S
C88          C89   1.383       .  A
C88          H91   1.080       .  S
C89         N120   1.436       .  S
N92          C96   1.325       .  A
N92          C93   1.326       .  A
N92         C124   1.410       .  S
C93          C94   1.381       .  A
C93         C446   1.405       .  S
C94          C95   1.361       .  A
C94          H97   1.078       .  S
C95          C96   1.377       .  A
C95          H98   1.077       .  S
C96         C117   1.444       .  S
N99         C103   1.363       .  A
N99         C100   1.376       .  A
N99         N106   1.416       .  S
C100        C101   1.374       .  A
C100        C502   1.511       .  S
C101        C102   1.372       .  A
C101        H104   1.081       .  S
C102        C103   1.379       .  A
C102        H105   1.070       .  S
C103        N113   1.448       .  S
N106        C110   1.365       .  A
N106        C107   1.367       .  A
C107        C108   1.373       .  A
C107        C418   1.500       .  S
C108        C109   1.351       .  A
C108        H111   1.081       .  S
C109        C110   1.398       .  A
C109        H112   1.072       .  S
N113        C117   1.340       .  A
N113        C114   1.348       .  A
C114        C115   1.376       .  A
C114        C361   1.449       .  S
C115        C116   1.363       .  A
C115        H118   1.078       .  S
C116        C117   1.368       .  A
C116        H119   1.081       .  S
N120        C124   1.344       .  A
N120        C121   1.346       .  A
C121        C122   1.382       .  A
C121        C404   1.464       .  S
C122        C123   1.362       .  A
C122        H125   1.082       .  S
C123        C124   1.385       .  A
C123        H126   1.081       .  S
N127        C131   1.334       .  A
N127        C128   1.348       .  A
N127        C166   1.439       .  S
C128        C129   1.380       .  A
C128        C447   1.419       .  S
C129        C130   1.362       .  A
C129       H2148   1.080       .  S
C130        C131   1.384       .  A
C130        H133   1.082       .  S
C131        C152   1.434       .  S
H132       C2145   1.080   1_455  S
N134        C138   1.387       .  A
N134        C135   1.389       .  A
N134        N155   1.459       .  S
C135        C136   1.370       .  A
C135        C488   1.534       .  S
C136        C137   1.368       .  A
C136        H139   1.075       .  S
C137        C138   1.380       .  A
C137        H140   1.075       .  S
C138        N162   1.477       .  S
N141        C145   1.391       .  A
N141        C142   1.394       .  A
N141        C159   1.483       .  S
C142        C143   1.382       .  A
C142        C503   1.523       .  S
C143        C144   1.374       .  A
C143       H2162   1.082       .  S
C144        C145   1.381       .  A
C144        H147   1.080       .  S
C145        N148   1.465       .  S
H146       C2159   1.082   1_455  S
N148        C152   1.336       .  A
N148        C149   1.364       .  A
C149        C150   1.393       .  A
C149        C390   1.494       .  S
C150        C151   1.362       .  A
C150        H153   1.084       .  S
C151        C152   1.365       .  A
C151        H154   1.070       .  S
N155        C159   1.385       .  A
N155        C156   1.380       .  A
C156        C157   1.363       .  A
C156        C419   1.510       .  S
C157        C158   1.362       .  A
C157        H160   1.069       .  S
C158        C159   1.391       .  A
C158        H161   1.078       .  S
N162        C166   1.354       .  A
N162        C163   1.392       .  A
C163        C164   1.376       .  A
C163        C406   1.495       .  S
C164        C165   1.368       .  A
C164        H167   1.082       .  S
C165        C166   1.387       .  A
C165        H168   1.078       .  S
N169        C173   1.367       .  A
N169        C170   1.355       .  A
N169        C194   1.412       .  S
C170        C171   1.383       .  A
C170        C504   1.521       .  S
C171        C172   1.391       .  A
C171        H174   1.082       .  S
C172        C173   1.389       .  A
C172        H175   1.074       .  S
C173        C208   1.514       .  S
N176        C180   1.371       .  A
N176        C177   1.395       .  A
N176        N204   1.438       .  S
C177        C178   1.382       .  A
C177        C431   1.513       .  S
C178        C179   1.365       .  A
C178        H181   1.083       .  S
C179        C180   1.377       .  A
C179        H182   1.074       .  S
C180        N197   1.443       .  S
N183        C187   1.360       .  A
N183        C184   1.376       .  A
N183        N190   1.431       .  S
C184        C185   1.384       .  A
C184        C461   1.464       .  S
C185        C186   1.343       .  A
C185        H188   1.083       .  S
C186        C187   1.379       .  A
C186        H189   1.083       .  S
C187        C201   1.458       .  S
N190        C194   1.356       .  A
N190        C191   1.368       .  A
C191        C192   1.377       .  A
C191        C347   1.446       .  S
C192        C193   1.344       .  A
C192        H195   1.082       .  S
C193        C194   1.377       .  A
C193        H196   1.079       .  S
N197        C201   1.357       .  A
N197        C198   1.358       .  A
C198        C199   1.376       .  A
C198        C405   1.493       .  S
C199        C200   1.360       .  A
C199        H202   1.083       .  S
C200        C201   1.379       .  A
C200        H203   1.068       .  S
N204        C208   1.380       .  A
N204        C205   1.407       .  A
C205        C206   1.370       .  A
C205        C364   1.523       .  S
C206        C207   1.355       .  A
C206        H209   1.077       .  S
C207        C208   1.376       .  A
C207        H210   1.075       .  S
N211        C215   1.401       .  A
N211        C212   1.367       .  A
N211        N232   1.435       .  S
C212        C213   1.371       .  A
C212        C489   1.519       .  S
C213        C214   1.364       .  A
C213        H216   1.071       .  S
C214        C215   1.386       .  A
C214        H217   1.076       .  S
C215        N246   1.503       .  S
N218        C222   1.368       .  A
N218        C219   1.381       .  A
N218        C250   1.466       .  S
C219        C220   1.383       .  A
C219        C434   1.503       .  S
C220        C221   1.367       .  A
C220       H2239   1.083       .  S
C221        C222   1.380       .  A
C221       H2240   1.076       .  S
C222        N239   1.441       .  S
H223       C2236   1.083   1_455  S
H224       C2237   1.076       .  S
N225        C229   1.352       .  A
N225        C226   1.359       .  A
N225        C236   1.412       .  S
C226        C227   1.382       .  A
C226        C501   1.485       .  S
C227        C228   1.371       .  A
C227       H2246   1.056       .  S
C228        C229   1.367       .  A
C228        H231   1.076       .  S
C229        C243   1.504       .  S
H230       C2243   1.056       .  S
N232        C236   1.361       .  A
N232        C233   1.387       .  A
C233        C234   1.383       .  A
C233        C349   1.497       .  S
C234        C235   1.361       .  A
C234        H237   1.084       .  S
C235        C236   1.374       .  A
C235        H238   1.081       .  S
N239        C243   1.356       .  A
N239        C240   1.372       .  A
C240        C241   1.381       .  A
C240        C392   1.486       .  S
C241        C242   1.371       .  A
C241        H244   1.083       .  S
C242        C243   1.381       .  A
C242        H245   1.073       .  S
N246        C250   1.370       .  A
N246        C247   1.369       .  A
C247        C248   1.384       .  A
C247        C403   1.498       .  S
C248        C249   1.357       .  A
C248        H251   1.083       .  S
C249        C250   1.380       .  A
C249        H252   1.076       .  S
N253        C257   1.382       .  A
N253        C254   1.391       .  A
N253        N274   1.463       .  S
C254        C255   1.390       .  A
C254        C474   1.537       .  S
C255        C256   1.356       .  A
C255        H258   1.083       .  S
C256        C257   1.379       .  A
C256        H259   1.083       .  S
C257        C292   1.477       .  S
N260        C264   1.367       .  A
N260        C261   1.376       .  A
N260        N288   1.434       .  S
C261        C262   1.384       .  A
C261        C432   1.485       .  S
C262        C263   1.360       .  A
C262       H1273   1.083       .  S
C263        C264   1.375       .  A
C263        H266   1.080       .  S
C264        N281   1.428       .  S
H265       C1270   1.083       .  S
N267        C271   1.367       .  A
N267        C268   1.365       .  A
N267        C278   1.438       .  S
C268        C269   1.379       .  A
C268        C487   1.494       .  S
C269        C270   1.378       .  A
C269       H1280   1.083   1_545  S
C270        C271   1.385       .  A
C270        H273   1.079       .  S
C271        C285   1.506       .  S
H272       C1277   1.083       .  S
N274        C278   1.375       .  A
N274        C275   1.400       .  A
C275        C276   1.392       .  A
C275        C348   1.523       .  S
C276        C277   1.349       .  A
C276        H279   1.085       .  S
C277        C278   1.368       .  A
C277        H280   1.081       .  S
N281        C285   1.353       .  A
N281        C282   1.362       .  A
C282        C283   1.381       .  A
C282        C378   1.500       .  S
C283        C284   1.391       .  A
C283        H286   1.080       .  S
C284        C285   1.369       .  A
C284        H287   1.077       .  S
N288        C292   1.371       .  A
N288        C289   1.374       .  A
C289        C290   1.385       .  A
C289        C389   1.475       .  S
C290        C291   1.368       .  A
C290        H293   1.083       .  S
C291        C292   1.378       .  A
C291        H294   1.082       .  S
N295        C299   1.387       .  A
N295        C296   1.407       .  A
N295        N330   1.467       .  S
C296        C297   1.381       .  A
C296        C476   1.506       .  S
C297        C298   1.332       .  A
C297        H300   1.085       .  S
C298        C299   1.370       .  A
C298        H301   1.078       .  S
C299        C327   1.467       .  S
N302        C306   1.352       .  A
N302        C303   1.366       .  A
N302        C334   1.460       .  S
C303        C304   1.378       .  A
C303        C460   1.454       .  S
C304        C305   1.371       .  A
C304        H307   1.081       .  S
C305        C306   1.381       .  A
C305        H308   1.082       .  S
C306        C320   1.471       .  S
N309        C313   1.343       .  A
N309        C310   1.374       .  A
N309        N323   1.436       .  S
C310        C311   1.378       .  A
C310        C433   1.530       .  S
C311        C312   1.367       .  A
C311        H314   1.076       .  S
C312        C313   1.361       .  A
C312        H315   1.074       .  S
C313        N316   1.425       .  S
N316        C320   1.347       .  A
N316        C317   1.340       .  A
C317        C318   1.374       .  A
C317        C375   1.455       .  S
C318        C319   1.365       .  A
C318        H321   1.061       .  S
C319        C320   1.373       .  A
C319        H322   1.081       .  S
N323        C327   1.360       .  A
N323        C324   1.384       .  A
C324        C325   1.387       .  A
C324        C362   1.506       .  S
C325        C326   1.380       .  A
C325        H328   1.083       .  S
C326        C327   1.376       .  A
C326        H329   1.082       .  S
N330        C334   1.369       .  A
N330        C331   1.409       .  A
C331        C332   1.387       .  A
C331        C350   1.588       .  S
C332        C333   1.365       .  A
C332        H335   1.082       .  S
C333        C334   1.378       .  A
C333        H336   1.068       .  S
O337       Ni345   1.893       .  S
O337        C347   1.276       .  A
O338       Ni345   1.948       .  S
O338        C348   1.281       .  A
O339       Ni345   1.978       .  S
O339        C349   1.291       .  A
O340       Ni345   2.024       .  S
O340        C350   1.301       .  A
O341       Ni346   1.973       .  S
O341        C350   1.296       .  A
O342       Ni346   1.918       .  S
O342        C349   1.281       .  A
O343       Ni346   1.956       .  S
O343        C348   1.293       .  A
O344       Ni346   1.910       .  S
O344        C347   1.276       .  A
Ni345      Ni346   2.369       .  S
O351       Ni359   1.899       .  S
O351        C361   1.286       .  A
O352       Ni359   1.985       .  S
O352        C362   1.301       .  A
O353       Ni359   1.884       .  S
O353        C363   1.274       .  A
O354       Ni359   1.924       .  S
O354        C364   1.272       .  A
O355       Ni360   2.016       .  S
O355        C364   1.309       .  A
O356       Ni360   1.964       .  S
O356        C363   1.300       .  A
O357       Ni360   1.906       .  S
O357        C362   1.270       .  A
O358       Ni360   1.852       .  S
O358        C361   1.262       .  A
Ni359      Ni360   2.384       .  S
O365       Ni373   1.915       .  S
O365        C375   1.285       .  A
O366       Ni373   1.909       .  S
O366        C376   1.283       .  A
O367       Ni373   1.894       .  S
O367        C377   1.271       .  A
O368       Ni373   1.898       .  S
O368        C378   1.273       .  A
O369       Ni374   1.974       .  S
O369        C378   1.295       .  A
O370       Ni374   1.970       .  S
O370        C377   1.295       .  A
O371       Ni374   1.901       .  S
O371        C376   1.272       .  A
O372       Ni374   1.897       .  S
O372        C375   1.271       .  A
Ni373      Ni374   2.389       .  S
O379       Ni387   1.954       .  S
O379        C389   1.294       .  A
O380       Ni387   1.958       .  S
O380        C390   1.290       .  A
O381       Ni387   1.886       .  S
O381        C391   1.270       .  A
O382       Ni387   1.904       .  S
O382        C392   1.271       .  A
O383       Ni388   1.945       .  S
O383        C392   1.290       .  A
O384       Ni388   1.900       .  S
O384        C391   1.280       .  A
O385       Ni388   1.888       .  S
O385        C390   1.277       .  A
O386       Ni388   1.893       .  S
O386        C389   1.269       .  A
Ni387      Ni388   2.387       .  S
O393       Ni401   1.996       .  S
O393        C403   1.300       .  A
O394       Ni401   1.971       .  S
O394        C404   1.297       .  A
O395       Ni401   1.833       .  S
O395        C405   1.257       .  A
O396       Ni401   1.862       .  S
O396        C406   1.256       .  A
O397       Ni402   1.992       .  S
O397        C406   1.303       .  A
O398       Ni402   2.000       .  S
O398        C405   1.301       .  A
O399       Ni402   1.837       .  S
O399        C404   1.257       .  A
O400       Ni402   1.861       .  S
O400        C403   1.264       .  A
Ni401      Ni402   2.377       .  S
O407       Ni415   2.021       .  S
O407        C417   1.304       .  A
O408       Ni415   1.985       .  S
O408        C418   1.295       .  A
O409       Ni415   1.952       .  S
O409        C419   1.283       .  A
O410       Ni415   1.896       .  S
O410        C420   1.270       .  A
O411       Ni416   1.907       .  S
O411        C420   1.283       .  A
O412       Ni416   1.940       .  S
O412        C419   1.290       .  A
O413       Ni416   1.882       .  S
O413        C418   1.274       .  A
O414       Ni416   1.912       .  S
O414        C417   1.276       .  A
Ni415      Ni416   2.379       .  S
O421       Ni429   1.969       .  S
O421        C431   1.286       .  A
O422      Ni3453   1.956       .  S
O422        C432   1.285       .  A
O423      Ni1437   1.971       .  S
O423        C433   1.289       .  A
O424      Ni2445   1.967       .  S
O424        C434   1.290       .  A
O425      Ni2446   1.913       .  S
O425        C434   1.279       .  A
O426      Ni1438   1.919   1_545  S
O426        C433   1.286       .  A
O427      Ni3454   1.908   1_545  S
O427        C432   1.282       .  A
O428       Ni430   1.945       .  S
O428        C431   1.286       .  A
Ni429      O3446   1.956   1_455  S
Ni429      O1431   1.971       .  S
Ni429      O2440   1.967   1_455  S
Ni429      Ni430   2.373       .  S
Ni430      O2441   1.913   1_455  S
Ni430      O1434   1.919       .  S
Ni430      O3451   1.908   1_455  S
O435      Ni3467   1.876       .  S
O435        C445   1.273       .  A
O436       Ni443   1.846       .  S
O436        C446   1.266       .  A
O437      Ni2459   1.823       .  S
O437        C447   1.256       .  A
O438      Ni1451   1.782   1_545  S
O438        C448   1.247       .  A
O439      Ni1452   1.927   1_545  S
O439        C448   1.285       .  A
O440      Ni2460   1.929       .  S
O440        C447   1.286       .  A
O441       Ni444   1.881       .  S
O441        C446   1.272       .  A
O442      Ni3468   1.876       .  S
O442        C445   1.266       .  A
Ni443      O3459   1.876   1_455  S
Ni443      O2453   1.823       .  S
Ni443      O1446   1.782       .  S
Ni443      Ni444   2.397       .  S
Ni444      O1447   1.927       .  S
Ni444      O2456   1.929   1_455  S
Ni444      O3466   1.876   1_455  S
O449       Ni961   1.864       .  S
O449        C459   1.267       .  A
O450      Ni1465   1.868       .  S
O450        C460   1.264       .  A
O451       Ni457   1.897       .  S
O451        C461   1.284       .  A
O452      Ni1969   1.911       .  S
O452        C462   1.276       .  A
O453      Ni1466   1.894   1_545  S
O453        C462   1.275       .  A
O454       Ni962   1.917       .  S
O454        C461   1.270       .  A
O455      Ni1970   1.935   1_545  S
O455        C460   1.286       .  A
O456       Ni458   1.936       .  S
O456        C459   1.288       .  A
Ni457       O953   1.864   1_554  S
Ni457      O1458   1.868       .  S
Ni457      O1964   1.911   1_554  S
Ni457      Ni962   2.385       .  S
Ni458      O1461   1.894       .  S
Ni458       O958   1.917       .  S
Ni458      O1967   1.935       .  S
Ni458      Ni961   2.385       .  S
O463       Ni471   1.939       .  S
O463        C473   1.278       .  A
O464      Ni2991   1.922   1_554  S
O464        C474   1.288       .  A
O465      Ni2487   1.886       .  S
O465        C475   1.267       .  A
O466       Ni975   1.907   1_554  S
O466        C476   1.280       .  A
O467       Ni976   1.989   1_554  S
O467        C476   1.295       .  A
O468      Ni2488   1.945       .  S
O468        C475   1.284       .  A
O469      Ni2992   1.984   1_554  S
O469        C474   1.291       .  A
O470       Ni472   1.954       .  S
O470        C473   1.293       .  A
Ni471      O2984   1.922   1_455  S
Ni471      O2481   1.886   1_455  S
Ni471       O970   1.907       .  S
Ni471      Ni472   2.369       .  S
Ni472       O971   1.989       .  S
Ni472      O2484   1.945   1_455  S
Ni472      O2989   1.984   1_455  S
O477      Ni1493   1.935       .  S
O477        C487   1.284   1_565  A
O478       Ni989   1.953       .  S
O478        C488   1.292       .  A
O479       Ni485   1.912       .  S
O479        C489   1.279       .  A
O480      Ni1997   1.927   1_545  S
O480        C490   1.285       .  A
O481      Ni1998   2.019   1_545  S
O481        C490   1.299       .  A
O482       Ni486   1.996       .  S
O482        C489   1.297       .  A
O483       Ni990   1.971       .  S
O483        C488   1.287       .  A
O484      Ni1494   1.942   1_545  S
O484        C487   1.283       .  A
Ni485      O1485   1.935       .  S
Ni485       O982   1.953   1_554  S
Ni485      O1992   1.927   1_554  S
Ni485      Ni486   2.368       .  S
Ni486      O1993   2.019   1_554  S
Ni486       O987   1.971   1_554  S
Ni486      O1492   1.942       .  S
O491      Ni3019   1.964   1_554  S
O491        C501   1.292       .  A
O492       Ni499   1.983       .  S
O492        C502   1.295       .  A
O493      Ni2515   1.942       .  S
O493        C503   1.277       .  A
O494      Ni1003   1.918   1_554  S
O494        C504   1.275       .  A
O495      Ni1004   1.973   1_554  S
O495        C504   1.295       .  A
O496       Ni500   1.974       .  S
O496       C2519   1.296       .  A
O497       Ni500   1.914       .  S
O497        C502   1.272       .  A
O498      Ni1004   1.894   1_554  S
O498       C2517   1.272   1_455  A
Ni499      O3011   1.964       .  S
Ni499      O2509   1.942       .  S
Ni499       O998   1.918       .  S
Ni499      Ni500   2.370       .  S
Ni500       O999   1.973       .  S
Ni500      O1002   1.894       .  S
C501       O2514   1.272       .  A
C503       O2512   1.296       .  A
N505        C509   1.366       .  A
N505        C506   1.386       .  A
N505        N526   1.428       .  S
C506        C507   1.380       .  A
C506        C994   1.551       .  S
C507        C508   1.369       .  A
C507        H510   1.069       .  S
C508        C509   1.366       .  A
C508        H511   1.082       .  S
C509        N540   1.438       .  S
N512        C516   1.335       .  A
N512        C513   1.339       .  A
N512        C537   1.432       .  S
C513        C514   1.375   1_545  A
C513        C949   1.430   1_545  S
C514        C515   1.373   1_565  A
C514       H1525   1.074       .  S
C515        C516   1.381       .  A
C515        H518   1.082   1_545  S
C516        C544   1.449       .  S
H517       C1522   1.074       .  S
N519        C523   1.360       .  A
N519        C520   1.373       .  A
N519        C530   1.461       .  S
C520        C521   1.359       .  A
C520        C979   1.478       .  S
C521        C522   1.365       .  A
C521       H2540   1.072       .  S
C522        C523   1.388       .  A
C522        H525   1.059       .  S
C523        N533   1.460       .  S
H524       C2537   1.072       .  S
N526        C530   1.363       .  A
N526        C527   1.372       .  A
C527        C528   1.380       .  A
C527        C921   1.538       .  S
C528        C529   1.372       .  A
C528        H531   1.076       .  S
C529        C530   1.387       .  A
C529        H532   1.080       .  S
N533        C537   1.353       .  A
N533        C534   1.357       .  A
C534        C535   1.371       .  A
C534        C895   1.436       .  S
C535        C536   1.356       .  A
C535        H538   1.084       .  S
C536        C537   1.390       .  A
C536        H539   1.079       .  S
N540        C544   1.342       .  A
N540        C541   1.353       .  A
C541        C542   1.381       .  A
C541        C880   1.447       .  S
C542        C543   1.359       .  A
C542        H545   1.080       .  S
C543        C544   1.374       .  A
C543        H546   1.080       .  S
N547        C551   1.388       .  A
N547        C548   1.393       .  A
N547        N582   1.463       .  S
C548        C549   1.364       .  A
C548        C977   1.513       .  S
C549        C550   1.349       .  A
C549        H552   1.082       .  S
C550        C551   1.389       .  A
C550        H553   1.074       .  S
C551        N568   1.480       .  S
N554        C558   1.342       .  A
N554        C555   1.359       .  A
N554        C579   1.462       .  S
C555        C556   1.377       .  A
C555        C952   1.416       .  S
C556        C557   1.370       .  A
C556        H559   1.084   1_455  S
C557        C558   1.350       .  A
C557        H560   1.072   1_455  S
C558        C586   1.427       .  S
N561        C565   1.345       .  A
N561        C562   1.376       .  A
N561        C572   1.423       .  S
C562        C563   1.377       .  A
C562        C966   1.468       .  S
C563        C564   1.342       .  A
C563        H566   1.082   1_545  S
C564        C565   1.382       .  A
C564        H567   1.070       .  S
C565        N575   1.407       .  S
N568        C572   1.377       .  A
N568        C569   1.380       .  A
C569        C570   1.361       .  A
C569        C924   1.445       .  S
C570        C571   1.331       .  A
C570        H573   1.083       .  S
C571        C572   1.367       .  A
C571        H574   1.070       .  S
N575        C579   1.353       .  A
N575        C576   1.353       .  A
C576        C577   1.380       .  A
C576        C881   1.486       .  S
C577        C578   1.374       .  A
C577        H580   1.080       .  S
C578        C579   1.386       .  A
C578        H581   1.081       .  S
N582        C586   1.360       .  A
N582        C583   1.400       .  A
C583        C584   1.395       .  A
C583        C867   1.491       .  S
C584        C585   1.353       .  A
C584        H587   1.078       .  S
C585        C586   1.366       .  A
C585        H588   1.083       .  S
N589        C593   1.373       .  A
N589        C590   1.354       .  A
N589        C614   1.465       .  S
C590        C591   1.371       .  A
C590        C963   1.466       .  S
C591        C592   1.347       .  A
C591        H594   1.071       .  S
C592        C593   1.383       .  A
C592        H595   1.080       .  S
C593        N624   1.436       .  S
N596        C600   1.325       .  A
N596        C597   1.326       .  A
N596        C628   1.410       .  S
C597        C598   1.381       .  A
C597        C950   1.405       .  S
C598        C599   1.361       .  A
C598        H601   1.078       .  S
C599        C600   1.377       .  A
C599        H602   1.077       .  S
C600        C621   1.444       .  S
N603        C607   1.363       .  A
N603        C604   1.376       .  A
N603        N610   1.416       .  S
C604        C605   1.374       .  A
C604       C1006   1.511       .  S
C605        C606   1.372       .  A
C605        H608   1.081       .  S
C606        C607   1.379       .  A
C606        H609   1.070       .  S
C607        N617   1.448       .  S
N610        C614   1.365       .  A
N610        C611   1.367       .  A
C611        C612   1.373       .  A
C611        C922   1.500       .  S
C612        C613   1.351       .  A
C612        H615   1.081       .  S
C613        C614   1.398       .  A
C613        H616   1.072       .  S
N617        C621   1.340       .  A
N617        C618   1.348       .  A
C618        C619   1.376       .  A
C618        C865   1.449       .  S
C619        C620   1.363       .  A
C619        H622   1.078       .  S
C620        C621   1.368       .  A
C620        H623   1.081       .  S
N624        C628   1.344       .  A
N624        C625   1.346       .  A
C625        C626   1.382       .  A
C625        C908   1.464       .  S
C626        C627   1.362       .  A
C626        H629   1.082       .  S
C627        C628   1.385       .  A
C627        H630   1.081       .  S
N631        C635   1.334       .  A
N631        C632   1.348       .  A
N631        C670   1.439       .  S
C632        C633   1.380       .  A
C632        C951   1.419       .  S
C633        C634   1.362       .  A
C633       H2652   1.080       .  S
C634        C635   1.384       .  A
C634        H637   1.082       .  S
C635        C656   1.434       .  S
H636       C2649   1.080   1_455  S
N638        C642   1.387       .  A
N638        C639   1.389       .  A
N638        N659   1.459       .  S
C639        C640   1.370       .  A
C639        C992   1.534       .  S
C640        C641   1.368       .  A
C640        H643   1.075       .  S
C641        C642   1.380       .  A
C641        H644   1.075       .  S
C642        N666   1.477       .  S
N645        C649   1.391       .  A
N645        C646   1.394       .  A
N645        C663   1.483       .  S
C646        C647   1.382       .  A
C646       C1007   1.523       .  S
C647        C648   1.374       .  A
C647       H2666   1.082       .  S
C648        C649   1.381       .  A
C648        H651   1.080       .  S
C649        N652   1.465       .  S
H650       C2663   1.082   1_455  S
N652        C656   1.336       .  A
N652        C653   1.364       .  A
C653        C654   1.393       .  A
C653        C894   1.494       .  S
C654        C655   1.362       .  A
C654        H657   1.084       .  S
C655        C656   1.365       .  A
C655        H658   1.070       .  S
N659        C663   1.385       .  A
N659        C660   1.380       .  A
C660        C661   1.363       .  A
C660        C923   1.510       .  S
C661        C662   1.362       .  A
C661        H664   1.069       .  S
C662        C663   1.391       .  A
C662        H665   1.078       .  S
N666        C670   1.354       .  A
N666        C667   1.392       .  A
C667        C668   1.376       .  A
C667        C910   1.495       .  S
C668        C669   1.368       .  A
C668        H671   1.082       .  S
C669        C670   1.387       .  A
C669        H672   1.078       .  S
N673        C677   1.367       .  A
N673        C674   1.355       .  A
N673        C698   1.412       .  S
C674        C675   1.383       .  A
C674       C1008   1.521       .  S
C675        C676   1.391       .  A
C675        H678   1.082       .  S
C676        C677   1.389       .  A
C676        H679   1.074       .  S
C677        C712   1.514       .  S
N680        C684   1.371       .  A
N680        C681   1.395       .  A
N680        N708   1.438       .  S
C681        C682   1.382       .  A
C681        C935   1.513       .  S
C682        C683   1.365       .  A
C682        H685   1.083       .  S
C683        C684   1.377       .  A
C683        H686   1.074       .  S
C684        N701   1.443       .  S
N687        C691   1.360       .  A
N687        C688   1.376       .  A
N687        N694   1.431       .  S
C688        C689   1.384       .  A
C688        C965   1.464       .  S
C689        C690   1.343       .  A
C689        H692   1.083       .  S
C690        C691   1.379       .  A
C690        H693   1.083       .  S
C691        C705   1.458       .  S
N694        C698   1.356       .  A
N694        C695   1.368       .  A
C695        C696   1.377       .  A
C695        C851   1.446       .  S
C696        C697   1.344       .  A
C696        H699   1.082       .  S
C697        C698   1.377       .  A
C697        H700   1.079       .  S
N701        C705   1.357       .  A
N701        C702   1.358       .  A
C702        C703   1.376       .  A
C702        C909   1.493       .  S
C703        C704   1.360       .  A
C703        H706   1.083       .  S
C704        C705   1.379       .  A
C704        H707   1.068       .  S
N708        C712   1.380       .  A
N708        C709   1.407       .  A
C709        C710   1.370       .  A
C709        C868   1.523       .  S
C710        C711   1.355       .  A
C710        H713   1.077       .  S
C711        C712   1.376       .  A
C711        H714   1.075       .  S
N715        C719   1.401       .  A
N715        C716   1.367       .  A
N715        N736   1.435       .  S
C716        C717   1.371       .  A
C716        C993   1.519       .  S
C717        C718   1.364       .  A
C717        H720   1.071       .  S
C718        C719   1.386       .  A
C718        H721   1.076       .  S
C719        N750   1.503       .  S
N722        C726   1.368       .  A
N722        C723   1.381       .  A
N722        C754   1.466       .  S
C723        C724   1.383       .  A
C723        C938   1.503       .  S
C724        C725   1.367       .  A
C724       H2743   1.083       .  S
C725        C726   1.380       .  A
C725       H2744   1.076       .  S
C726        N743   1.441       .  S
H727       C2740   1.083   1_455  S
H728       C2741   1.076       .  S
N729        C733   1.352       .  A
N729        C730   1.359       .  A
N729        C740   1.412       .  S
C730        C731   1.382       .  A
C730       C1005   1.485       .  S
C731        C732   1.371       .  A
C731       H2750   1.056       .  S
C732        C733   1.367       .  A
C732        H735   1.076       .  S
C733        C747   1.504       .  S
H734       C2747   1.056       .  S
N736        C740   1.361       .  A
N736        C737   1.387       .  A
C737        C738   1.383       .  A
C737        C853   1.497       .  S
C738        C739   1.361       .  A
C738        H741   1.084       .  S
C739        C740   1.374       .  A
C739        H742   1.081       .  S
N743        C747   1.356       .  A
N743        C744   1.372       .  A
C744        C745   1.381       .  A
C744        C896   1.486       .  S
C745        C746   1.371       .  A
C745        H748   1.083       .  S
C746        C747   1.381       .  A
C746        H749   1.073       .  S
N750        C754   1.370       .  A
N750        C751   1.369       .  A
C751        C752   1.384       .  A
C751        C907   1.498       .  S
C752        C753   1.357       .  A
C752        H755   1.083       .  S
C753        C754   1.380       .  A
C753        H756   1.076       .  S
N757        C761   1.382       .  A
N757        C758   1.391       .  A
N757        N778   1.463       .  S
C758        C759   1.390       .  A
C758        C978   1.537       .  S
C759        C760   1.356       .  A
C759        H762   1.083       .  S
C760        C761   1.379       .  A
C760        H763   1.083       .  S
C761        C796   1.477       .  S
N764        C768   1.367       .  A
N764        C765   1.376       .  A
N764        N792   1.433       .  S
C765        C766   1.384       .  A
C765        C936   1.485       .  S
C766        C767   1.360       .  A
C766       H1777   1.083       .  S
C767        C768   1.375       .  A
C767        H770   1.080       .  S
C768        N785   1.428       .  S
H769       C1774   1.083       .  S
N771        C775   1.367       .  A
N771        C772   1.365       .  A
N771        C782   1.438       .  S
C772        C773   1.379       .  A
C772        C991   1.494       .  S
C773        C774   1.378       .  A
C773       H1784   1.083   1_545  S
C774        C775   1.385       .  A
C774        H777   1.079       .  S
C775        C789   1.506       .  S
H776       C1781   1.083       .  S
N778        C782   1.375       .  A
N778        C779   1.400       .  A
C779        C780   1.392       .  A
C779        C852   1.523       .  S
C780        C781   1.349       .  A
C780        H783   1.085       .  S
C781        C782   1.368       .  A
C781        H784   1.081       .  S
N785        C789   1.353       .  A
N785        C786   1.362       .  A
C786        C787   1.381       .  A
C786        C882   1.500       .  S
C787        C788   1.391       .  A
C787        H790   1.080       .  S
C788        C789   1.369       .  A
C788        H791   1.077       .  S
N792        C796   1.371       .  A
N792        C793   1.374       .  A
C793        C794   1.385       .  A
C793        C893   1.475       .  S
C794        C795   1.368       .  A
C794        H797   1.083       .  S
C795        C796   1.378       .  A
C795        H798   1.082       .  S
N799        C803   1.387       .  A
N799        C800   1.407       .  A
N799        N834   1.467       .  S
C800        C801   1.381       .  A
C800        C980   1.506       .  S
C801        C802   1.332       .  A
C801        H804   1.085       .  S
C802        C803   1.370       .  A
C802        H805   1.078       .  S
C803        C831   1.467       .  S
N806        C810   1.352       .  A
N806        C807   1.366       .  A
N806        C838   1.460       .  S
C807        C808   1.378       .  A
C807        C964   1.454       .  S
C808        C809   1.371       .  A
C808        H811   1.081       .  S
C809        C810   1.381       .  A
C809        H812   1.082       .  S
C810        C824   1.471       .  S
N813        C817   1.343       .  A
N813        C814   1.374       .  A
N813        N827   1.436       .  S
C814        C815   1.378       .  A
C814        C937   1.530       .  S
C815        C816   1.367       .  A
C815        H818   1.076       .  S
C816        C817   1.361       .  A
C816        H819   1.074       .  S
C817        N820   1.425       .  S
N820        C824   1.347       .  A
N820        C821   1.340       .  A
C821        C822   1.374       .  A
C821        C879   1.455       .  S
C822        C823   1.365       .  A
C822        H825   1.061       .  S
C823        C824   1.373       .  A
C823        H826   1.081       .  S
N827        C831   1.360       .  A
N827        C828   1.384       .  A
C828        C829   1.387       .  A
C828        C866   1.506       .  S
C829        C830   1.380       .  A
C829        H832   1.083       .  S
C830        C831   1.376       .  A
C830        H833   1.082       .  S
N834        C838   1.369       .  A
N834        C835   1.409       .  A
C835        C836   1.387       .  A
C835        C854   1.588       .  S
C836        C837   1.365       .  A
C836        H839   1.082       .  S
C837        C838   1.378       .  A
C837        H840   1.068       .  S
O841       Ni849   1.893       .  S
O841        C851   1.276       .  A
O842       Ni849   1.948       .  S
O842        C852   1.281       .  A
O843       Ni849   1.978       .  S
O843        C853   1.291       .  A
O844       Ni849   2.024       .  S
O844        C854   1.301       .  A
O845       Ni850   1.973       .  S
O845        C854   1.296       .  A
O846       Ni850   1.918       .  S
O846        C853   1.281       .  A
O847       Ni850   1.956       .  S
O847        C852   1.293       .  A
O848       Ni850   1.910       .  S
O848        C851   1.276       .  A
Ni849      Ni850   2.369       .  S
O855       Ni863   1.899       .  S
O855        C865   1.286       .  A
O856       Ni863   1.985       .  S
O856        C866   1.301       .  A
O857       Ni863   1.884       .  S
O857        C867   1.274       .  A
O858       Ni863   1.924       .  S
O858        C868   1.272       .  A
O859       Ni864   2.016       .  S
O859        C868   1.309       .  A
O860       Ni864   1.964       .  S
O860        C867   1.300       .  A
O861       Ni864   1.906       .  S
O861        C866   1.270       .  A
O862       Ni864   1.852       .  S
O862        C865   1.262       .  A
Ni863      Ni864   2.384       .  S
O869       Ni877   1.915       .  S
O869        C879   1.285       .  A
O870       Ni877   1.909       .  S
O870        C880   1.283       .  A
O871       Ni877   1.894       .  S
O871        C881   1.271       .  A
O872       Ni877   1.898       .  S
O872        C882   1.273       .  A
O873       Ni878   1.974       .  S
O873        C882   1.295       .  A
O874       Ni878   1.970       .  S
O874        C881   1.295       .  A
O875       Ni878   1.901       .  S
O875        C880   1.272       .  A
O876       Ni878   1.897       .  S
O876        C879   1.271       .  A
Ni877      Ni878   2.389       .  S
O883       Ni891   1.954       .  S
O883        C893   1.294       .  A
O884       Ni891   1.958       .  S
O884        C894   1.290       .  A
O885       Ni891   1.886       .  S
O885        C895   1.270       .  A
O886       Ni891   1.904       .  S
O886        C896   1.271       .  A
O887       Ni892   1.945       .  S
O887        C896   1.290       .  A
O888       Ni892   1.900       .  S
O888        C895   1.280       .  A
O889       Ni892   1.888       .  S
O889        C894   1.277       .  A
O890       Ni892   1.893       .  S
O890        C893   1.269       .  A
Ni891      Ni892   2.387       .  S
O897       Ni905   1.996       .  S
O897        C907   1.300       .  A
O898       Ni905   1.971       .  S
O898        C908   1.297       .  A
O899       Ni905   1.833       .  S
O899        C909   1.257       .  A
O900       Ni905   1.862       .  S
O900        C910   1.256       .  A
O901       Ni906   1.992       .  S
O901        C910   1.303       .  A
O902       Ni906   2.000       .  S
O902        C909   1.301       .  A
O903       Ni906   1.837       .  S
O903        C908   1.257       .  A
O904       Ni906   1.861       .  S
O904        C907   1.264       .  A
Ni905      Ni906   2.377       .  S
O911       Ni919   2.021       .  S
O911        C921   1.304       .  A
O912       Ni919   1.985       .  S
O912        C922   1.295       .  A
O913       Ni919   1.952       .  S
O913        C923   1.283       .  A
O914       Ni919   1.896       .  S
O914        C924   1.270       .  A
O915       Ni920   1.907       .  S
O915        C924   1.283       .  A
O916       Ni920   1.940       .  S
O916        C923   1.290       .  A
O917       Ni920   1.882       .  S
O917        C922   1.274       .  A
O918       Ni920   1.912       .  S
O918        C921   1.276       .  A
Ni919      Ni920   2.379       .  S
O925       Ni933   1.969       .  S
O925        C935   1.286       .  A
O926      Ni3957   1.956       .  S
O926        C936   1.285       .  A
O927      Ni1941   1.971       .  S
O927        C937   1.289       .  A
O928      Ni2949   1.967       .  S
O928        C938   1.290       .  A
O929      Ni2950   1.913       .  S
O929        C938   1.279       .  A
O930      Ni1942   1.919   1_545  S
O930        C937   1.286       .  A
O931      Ni3958   1.908   1_545  S
O931        C936   1.282       .  A
O932       Ni934   1.945       .  S
O932        C935   1.286       .  A
Ni933      O3950   1.956   1_455  S
Ni933      O1935   1.971       .  S
Ni933      O2944   1.967   1_455  S
Ni933      Ni934   2.373       .  S
Ni934      O2945   1.913   1_455  S
Ni934      O1938   1.919       .  S
Ni934      O3955   1.908   1_455  S
O939      Ni3971   1.876       .  S
O939        C949   1.273       .  A
O940       Ni947   1.846       .  S
O940        C950   1.266       .  A
O941      Ni2963   1.823       .  S
O941        C951   1.256       .  A
O942      Ni1955   1.782   1_545  S
O942        C952   1.247       .  A
O943      Ni1956   1.927   1_545  S
O943        C952   1.285       .  A
O944      Ni2964   1.929       .  S
O944        C951   1.286       .  A
O945       Ni948   1.881       .  S
O945        C950   1.272       .  A
O946      Ni3972   1.876       .  S
O946        C949   1.266       .  A
Ni947      O3963   1.876   1_455  S
Ni947      O2957   1.823       .  S
Ni947      O1950   1.782       .  S
Ni947      Ni948   2.397       .  S
Ni948      O1951   1.927       .  S
Ni948      O2960   1.929   1_455  S
Ni948      O3970   1.876   1_455  S
O953        C963   1.267       .  A
O954      Ni1969   1.868       .  S
O954        C964   1.264       .  A
O955       Ni961   1.897       .  S
O955        C965   1.284       .  A
O956      Ni1465   1.911   1_556  S
O956        C966   1.276       .  A
O957      Ni1970   1.894   1_546  S
O957        C966   1.275       .  A
O958        C965   1.270       .  A
O959      Ni1466   1.935   1_545  S
O959        C964   1.286       .  A
O960       Ni962   1.936   1_556  S
O960        C963   1.288       .  A
Ni961      O1962   1.868       .  S
Ni961      O1460   1.911       .  S
Ni962      O1965   1.894   1_554  S
Ni962      O1463   1.935       .  S
O967       Ni975   1.939       .  S
O967        C977   1.278       .  A
O968      Ni2487   1.922       .  S
O968        C978   1.288       .  A
O969      Ni2991   1.886       .  S
O969        C979   1.267       .  A
O970        C980   1.280       .  A
O971        C980   1.295       .  A
O972      Ni2992   1.945       .  S
O972        C979   1.284       .  A
O973      Ni2488   1.984       .  S
O973        C978   1.291       .  A
O974       Ni976   1.954       .  S
O974        C977   1.293       .  A
Ni975      O2480   1.922   1_456  S
Ni975      O2985   1.886   1_455  S
Ni975      Ni976   2.369       .  S
Ni976      O2988   1.945   1_455  S
Ni976      O2485   1.984   1_456  S
O981      Ni1997   1.935       .  S
O981        C991   1.284   1_565  A
O982        C992   1.292       .  A
O983       Ni989   1.912       .  S
O983        C993   1.279       .  A
O984      Ni1493   1.927   1_546  S
O984        C994   1.285       .  A
O985      Ni1494   2.019   1_546  S
O985        C994   1.299       .  A
O986       Ni990   1.996       .  S
O986        C993   1.297       .  A
O987        C992   1.287       .  A
O988      Ni1998   1.942   1_545  S
O988        C991   1.283       .  A
Ni989      O1989   1.935       .  S
Ni989      O1488   1.927       .  S
Ni989      Ni990   2.368       .  S
Ni990      O1489   2.019       .  S
Ni990      O1996   1.942       .  S
O995      Ni2515   1.964       .  S
O995       C1005   1.292       .  A
O996      Ni1003   1.983       .  S
O996       C1006   1.295       .  A
O997      Ni3019   1.942       .  S
O997       C1007   1.277       .  A
O998       C1008   1.275       .  A
O999       C1008   1.295       .  A
O1000     Ni1004   1.974       .  S
O1000      C3023   1.296       .  A
O1001     Ni1004   1.914       .  S
O1001      C1006   1.272       .  A
O1002      C3021   1.272   1_455  A
Ni1003     O2507   1.964   1_556  S
Ni1003     O3013   1.942       .  S
Ni1003    Ni1004   2.370       .  S
C1005      O3018   1.272       .  A
C1007      O3016   1.296       .  A
N1009      C1013   1.366       .  A
N1009      C1010   1.386       .  A
N1009      N1030   1.428       .  S
C1010      C1011   1.380       .  A
C1010      C1498   1.551       .  S
C1011      C1012   1.369       .  A
C1011      H1014   1.069       .  S
C1012      C1013   1.366       .  A
C1012      H1015   1.082       .  S
C1013      N1044   1.438       .  S
N1016      C1020   1.335       .  A
N1016      C1017   1.339       .  A
N1016      C1041   1.432       .  S
C1017      C1018   1.375       .  A
C1017      C1453   1.430       .  S
C1018      C1019   1.373       .  A
C1019      C1020   1.381       .  A
C1019      H1022   1.082       .  S
C1020      C1048   1.449       .  S
N1023      C1027   1.360       .  A
N1023      C1024   1.373       .  A
N1023      C1034   1.461       .  S
C1024      C1025   1.359       .  A
C1024      C1483   1.478       .  S
C1025      C1026   1.365       .  A
C1025      H3044   1.072       .  S
C1026      C1027   1.388       .  A
C1026      H1029   1.059       .  S
C1027      N1037   1.460       .  S
H1028      C3041   1.072       .  S
N1030      C1034   1.363       .  A
N1030      C1031   1.372       .  A
C1031      C1032   1.380       .  A
C1031      C1425   1.538       .  S
C1032      C1033   1.372       .  A
C1032      H1035   1.076       .  S
C1033      C1034   1.387       .  A
C1033      H1036   1.080       .  S
N1037      C1041   1.353       .  A
N1037      C1038   1.357       .  A
C1038      C1039   1.371       .  A
C1038      C1399   1.436       .  S
C1039      C1040   1.356       .  A
C1039      H1042   1.083       .  S
C1040      C1041   1.390       .  A
C1040      H1043   1.079       .  S
N1044      C1048   1.342       .  A
N1044      C1045   1.353       .  A
C1045      C1046   1.381       .  A
C1045      C1384   1.447       .  S
C1046      C1047   1.359       .  A
C1046      H1049   1.080       .  S
C1047      C1048   1.374       .  A
C1047      H1050   1.080       .  S
N1051      C1055   1.388       .  A
N1051      C1052   1.393       .  A
N1051      N1086   1.463       .  S
C1052      C1053   1.364       .  A
C1052      C1481   1.513       .  S
C1053      C1054   1.349       .  A
C1053      H1056   1.082       .  S
C1054      C1055   1.389       .  A
C1054      H1057   1.074       .  S
C1055      N1072   1.480       .  S
N1058      C1062   1.342       .  A
N1058      C1059   1.359       .  A
N1058      C1083   1.462       .  S
C1059      C1060   1.377       .  A
C1059      C1456   1.416       .  S
C1060      C1061   1.370       .  A
C1060      H1063   1.084   1_455  S
C1061      C1062   1.350       .  A
C1061      H1064   1.072   1_455  S
C1062      C1090   1.427       .  S
N1065      C1069   1.345       .  A
N1065      C1066   1.376       .  A
N1065      C1076   1.423       .  S
C1066      C1067   1.377       .  A
C1066      C1470   1.468       .  S
C1067      C1068   1.342       .  A
C1067      H1070   1.082       .  S
C1068      C1069   1.382       .  A
C1068      H1071   1.070       .  S
C1069      N1079   1.407       .  S
N1072      C1076   1.377       .  A
N1072      C1073   1.380       .  A
C1073      C1074   1.361       .  A
C1073      C1428   1.445       .  S
C1074      C1075   1.331       .  A
C1074      H1077   1.083       .  S
C1075      C1076   1.367       .  A
C1075      H1078   1.070       .  S
N1079      C1083   1.353       .  A
N1079      C1080   1.353       .  A
C1080      C1081   1.380       .  A
C1080      C1385   1.486       .  S
C1081      C1082   1.374       .  A
C1081      H1084   1.080       .  S
C1082      C1083   1.386       .  A
C1082      H1085   1.081       .  S
N1086      C1090   1.360       .  A
N1086      C1087   1.400       .  A
C1087      C1088   1.395       .  A
C1087      C1371   1.491       .  S
C1088      C1089   1.353       .  A
C1088      H1091   1.078       .  S
C1089      C1090   1.366       .  A
C1089      H1092   1.083       .  S
N1093      C1097   1.373       .  A
N1093      C1094   1.354       .  A
N1093      C1118   1.465       .  S
C1094      C1095   1.371       .  A
C1094      C1467   1.466       .  S
C1095      C1096   1.347       .  A
C1095      H1098   1.071       .  S
C1096      C1097   1.383       .  A
C1096      H1099   1.080       .  S
C1097      N1128   1.436       .  S
N1100      C1104   1.325       .  A
N1100      C1101   1.326       .  A
N1100      C1132   1.410       .  S
C1101      C1102   1.381       .  A
C1101      C1454   1.405       .  S
C1102      C1103   1.361       .  A
C1102      H1105   1.078       .  S
C1103      C1104   1.377       .  A
C1103      H1106   1.077       .  S
C1104      C1125   1.444       .  S
N1107      C1111   1.363       .  A
N1107      C1108   1.376       .  A
N1107      N1114   1.416       .  S
C1108      C1109   1.374       .  A
C1108      C1510   1.511       .  S
C1109      C1110   1.372       .  A
C1109      H1112   1.081       .  S
C1110      C1111   1.379       .  A
C1110      H1113   1.070       .  S
C1111      N1121   1.448       .  S
N1114      C1118   1.365       .  A
N1114      C1115   1.367       .  A
C1115      C1116   1.373       .  A
C1115      C1426   1.500       .  S
C1116      C1117   1.351       .  A
C1116      H1119   1.081       .  S
C1117      C1118   1.398       .  A
C1117      H1120   1.072       .  S
N1121      C1125   1.340       .  A
N1121      C1122   1.348       .  A
C1122      C1123   1.376       .  A
C1122      C1369   1.449       .  S
C1123      C1124   1.363       .  A
C1123      H1126   1.078       .  S
C1124      C1125   1.368       .  A
C1124      H1127   1.081       .  S
N1128      C1132   1.344       .  A
N1128      C1129   1.346       .  A
C1129      C1130   1.382       .  A
C1129      C1412   1.464       .  S
C1130      C1131   1.362       .  A
C1130      H1133   1.082       .  S
C1131      C1132   1.385       .  A
C1131      H1134   1.081       .  S
N1135      C1139   1.334       .  A
N1135      C1136   1.348       .  A
N1135      C1174   1.439       .  S
C1136      C1137   1.380       .  A
C1136      C1455   1.419       .  S
C1137      C1138   1.362       .  A
C1137      H3156   1.080       .  S
C1138      C1139   1.384       .  A
C1138      H1141   1.082       .  S
C1139      C1160   1.434       .  S
H1140      C3153   1.080   1_455  S
N1142      C1146   1.387       .  A
N1142      C1143   1.389       .  A
N1142      N1163   1.459       .  S
C1143      C1144   1.370       .  A
C1143      C1496   1.534       .  S
C1144      C1145   1.368       .  A
C1144      H1147   1.075       .  S
C1145      C1146   1.380       .  A
C1145      H1148   1.075       .  S
C1146      N1170   1.477       .  S
N1149      C1153   1.391       .  A
N1149      C1150   1.394       .  A
N1149      C1167   1.483       .  S
C1150      C1151   1.382       .  A
C1150      C1511   1.523       .  S
C1151      C1152   1.374       .  A
C1151      H3170   1.082       .  S
C1152      C1153   1.381       .  A
C1152      H1155   1.080       .  S
C1153      N1156   1.465       .  S
H1154      C3167   1.082   1_455  S
N1156      C1160   1.336       .  A
N1156      C1157   1.364       .  A
C1157      C1158   1.393       .  A
C1157      C1398   1.494       .  S
C1158      C1159   1.362       .  A
C1158      H1161   1.084       .  S
C1159      C1160   1.365       .  A
C1159      H1162   1.070       .  S
N1163      C1167   1.385       .  A
N1163      C1164   1.380       .  A
C1164      C1165   1.363       .  A
C1164      C1427   1.510       .  S
C1165      C1166   1.362       .  A
C1165      H1168   1.069       .  S
C1166      C1167   1.391       .  A
C1166      H1169   1.078       .  S
N1170      C1174   1.354       .  A
N1170      C1171   1.392       .  A
C1171      C1172   1.376       .  A
C1171      C1414   1.494       .  S
C1172      C1173   1.368       .  A
C1172      H1175   1.082       .  S
C1173      C1174   1.387       .  A
C1173      H1176   1.078       .  S
N1177      C1181   1.367       .  A
N1177      C1178   1.355       .  A
N1177      C1202   1.412       .  S
C1178      C1179   1.383       .  A
C1178      C1512   1.521       .  S
C1179      C1180   1.391       .  A
C1179      H1182   1.082       .  S
C1180      C1181   1.389       .  A
C1180      H1183   1.074       .  S
C1181      C1216   1.514       .  S
N1184      C1188   1.371       .  A
N1184      C1185   1.395       .  A
N1184      N1212   1.438       .  S
C1185      C1186   1.382       .  A
C1185      C1439   1.513       .  S
C1186      C1187   1.365       .  A
C1186      H1189   1.083       .  S
C1187      C1188   1.377       .  A
C1187      H1190   1.074       .  S
C1188      N1205   1.443       .  S
N1191      C1195   1.360       .  A
N1191      C1192   1.376       .  A
N1191      N1198   1.431       .  S
C1192      C1193   1.384       .  A
C1192      C1469   1.464       .  S
C1193      C1194   1.343       .  A
C1193      H1196   1.083       .  S
C1194      C1195   1.379       .  A
C1194      H1197   1.083       .  S
C1195      C1209   1.458       .  S
N1198      C1202   1.356       .  A
N1198      C1199   1.368       .  A
C1199      C1200   1.377       .  A
C1199      C1355   1.446       .  S
C1200      C1201   1.344       .  A
C1200      H1203   1.082       .  S
C1201      C1202   1.377       .  A
C1201      H1204   1.079       .  S
N1205      C1209   1.357       .  A
N1205      C1206   1.358       .  A
C1206      C1207   1.376       .  A
C1206      C1413   1.493       .  S
C1207      C1208   1.360       .  A
C1207      H1210   1.083       .  S
C1208      C1209   1.379       .  A
C1208      H1211   1.068       .  S
N1212      C1216   1.380       .  A
N1212      C1213   1.407       .  A
C1213      C1214   1.370       .  A
C1213      C1372   1.523       .  S
C1214      C1215   1.355       .  A
C1214      H1217   1.077       .  S
C1215      C1216   1.376       .  A
C1215      H1218   1.075       .  S
N1219      C1223   1.401       .  A
N1219      C1220   1.367       .  A
N1219      N1240   1.435       .  S
C1220      C1221   1.371       .  A
C1220      C1497   1.519       .  S
C1221      C1222   1.364       .  A
C1221      H1224   1.071       .  S
C1222      C1223   1.386       .  A
C1222      H1225   1.076       .  S
C1223      N1254   1.503       .  S
N1226      C1230   1.368       .  A
N1226      C1227   1.381       .  A
N1226      C1258   1.466       .  S
C1227      C1228   1.383       .  A
C1227      C1442   1.503       .  S
C1228      C1229   1.367       .  A
C1228      H3247   1.083       .  S
C1229      C1230   1.380       .  A
C1229      H3248   1.076       .  S
C1230      N1247   1.441       .  S
H1231      C3244   1.083   1_455  S
H1232      C3245   1.076       .  S
N1233      C1237   1.352       .  A
N1233      C1234   1.359       .  A
N1233      C1244   1.412       .  S
C1234      C1235   1.382       .  A
C1234      C1509   1.485       .  S
C1235      C1236   1.371       .  A
C1235      H3254   1.056       .  S
C1236      C1237   1.367       .  A
C1236      H1239   1.076       .  S
C1237      C1251   1.504       .  S
H1238      C3251   1.056       .  S
N1240      C1244   1.361       .  A
N1240      C1241   1.387       .  A
C1241      C1242   1.383       .  A
C1241      C1357   1.497       .  S
C1242      C1243   1.361       .  A
C1242      H1245   1.084       .  S
C1243      C1244   1.374       .  A
C1243      H1246   1.081       .  S
N1247      C1251   1.356       .  A
N1247      C1248   1.372       .  A
C1248      C1249   1.381       .  A
C1248      C1400   1.486       .  S
C1249      C1250   1.371       .  A
C1249      H1252   1.083       .  S
C1250      C1251   1.381       .  A
C1250      H1253   1.073       .  S
N1254      C1258   1.370       .  A
N1254      C1255   1.369       .  A
C1255      C1256   1.384       .  A
C1255      C1411   1.498       .  S
C1256      C1257   1.357       .  A
C1256      H1259   1.083       .  S
C1257      C1258   1.380       .  A
C1257      H1260   1.076       .  S
N1261      C1265   1.382       .  A
N1261      C1262   1.391       .  A
N1261      N1282   1.463       .  S
C1262      C1263   1.390       .  A
C1262      C1482   1.537       .  S
C1263      C1264   1.356       .  A
C1263      H1266   1.083       .  S
C1264      C1265   1.379       .  A
C1264      H1267   1.083       .  S
C1265      C1300   1.477       .  S
N1268      C1272   1.367       .  A
N1268      C1269   1.376       .  A
N1268      N1296   1.433       .  S
C1269      C1270   1.384       .  A
C1269      C1440   1.485       .  S
C1270      C1271   1.359       .  A
C1271      C1272   1.375       .  A
C1271      H1274   1.080       .  S
C1272      N1289   1.428       .  S
N1275      C1279   1.367       .  A
N1275      C1276   1.365       .  A
N1275      C1286   1.438       .  S
C1276      C1277   1.379       .  A
C1276      C1495   1.494       .  S
C1277      C1278   1.378       .  A
C1278      C1279   1.385       .  A
C1278      H1281   1.079       .  S
C1279      C1293   1.506       .  S
N1282      C1286   1.375       .  A
N1282      C1283   1.400       .  A
C1283      C1284   1.392       .  A
C1283      C1356   1.523       .  S
C1284      C1285   1.349       .  A
C1284      H1287   1.084       .  S
C1285      C1286   1.368       .  A
C1285      H1288   1.081       .  S
N1289      C1293   1.353       .  A
N1289      C1290   1.362       .  A
C1290      C1291   1.381       .  A
C1290      C1386   1.500       .  S
C1291      C1292   1.391       .  A
C1291      H1294   1.080       .  S
C1292      C1293   1.369       .  A
C1292      H1295   1.077       .  S
N1296      C1300   1.371       .  A
N1296      C1297   1.374       .  A
C1297      C1298   1.385       .  A
C1297      C1397   1.475       .  S
C1298      C1299   1.368       .  A
C1298      H1301   1.083       .  S
C1299      C1300   1.378       .  A
C1299      H1302   1.082       .  S
N1303      C1307   1.387       .  A
N1303      C1304   1.407       .  A
N1303      N1338   1.467       .  S
C1304      C1305   1.381       .  A
C1304      C1484   1.506       .  S
C1305      C1306   1.332       .  A
C1305      H1308   1.085       .  S
C1306      C1307   1.370       .  A
C1306      H1309   1.078       .  S
C1307      C1335   1.467       .  S
N1310      C1314   1.352       .  A
N1310      C1311   1.366       .  A
N1310      C1342   1.460       .  S
C1311      C1312   1.378       .  A
C1311      C1468   1.454       .  S
C1312      C1313   1.371       .  A
C1312      H1315   1.081       .  S
C1313      C1314   1.381       .  A
C1313      H1316   1.082       .  S
C1314      C1328   1.471       .  S
N1317      C1321   1.343       .  A
N1317      C1318   1.374       .  A
N1317      N1331   1.436       .  S
C1318      C1319   1.378       .  A
C1318      C1441   1.530       .  S
C1319      C1320   1.367       .  A
C1319      H1322   1.076       .  S
C1320      C1321   1.361       .  A
C1320      H1323   1.074       .  S
C1321      N1324   1.425       .  S
N1324      C1328   1.347       .  A
N1324      C1325   1.340       .  A
C1325      C1326   1.374       .  A
C1325      C1383   1.455       .  S
C1326      C1327   1.365       .  A
C1326      H1329   1.061       .  S
C1327      C1328   1.373       .  A
C1327      H1330   1.081       .  S
N1331      C1335   1.360       .  A
N1331      C1332   1.384       .  A
C1332      C1333   1.387       .  A
C1332      C1370   1.506       .  S
C1333      C1334   1.380       .  A
C1333      H1336   1.083       .  S
C1334      C1335   1.376       .  A
C1334      H1337   1.082       .  S
N1338      C1342   1.369       .  A
N1338      C1339   1.409       .  A
C1339      C1340   1.387       .  A
C1339      C1358   1.588       .  S
C1340      C1341   1.365       .  A
C1340      H1343   1.082       .  S
C1341      C1342   1.378       .  A
C1341      H1344   1.068       .  S
O1345     Ni1353   1.893       .  S
O1345      C1355   1.276       .  A
O1346     Ni1353   1.948       .  S
O1346      C1356   1.281       .  A
O1347     Ni1353   1.978       .  S
O1347      C1357   1.291       .  A
O1348     Ni1353   2.024       .  S
O1348      C1358   1.301       .  A
O1349     Ni1354   1.973       .  S
O1349      C1358   1.296       .  A
O1350     Ni1354   1.918       .  S
O1350      C1357   1.281       .  A
O1351     Ni1354   1.956       .  S
O1351      C1356   1.293       .  A
O1352     Ni1354   1.910       .  S
O1352      C1355   1.276       .  A
Ni1353    Ni1354   2.369       .  S
O1359     Ni1367   1.899       .  S
O1359      C1369   1.286       .  A
O1360     Ni1367   1.985       .  S
O1360      C1370   1.301       .  A
O1361     Ni1367   1.884       .  S
O1361      C1371   1.274       .  A
O1362     Ni1367   1.924       .  S
O1362      C1372   1.272       .  A
O1363     Ni1368   2.016       .  S
O1363      C1372   1.309       .  A
O1364     Ni1368   1.964       .  S
O1364      C1371   1.300       .  A
O1365     Ni1368   1.906       .  S
O1365      C1370   1.270       .  A
O1366     Ni1368   1.852       .  S
O1366      C1369   1.262       .  A
Ni1367    Ni1368   2.384       .  S
O1373     Ni1381   1.915       .  S
O1373      C1383   1.285       .  A
O1374     Ni1381   1.909       .  S
O1374      C1384   1.283       .  A
O1375     Ni1381   1.894       .  S
O1375      C1385   1.271       .  A
O1376     Ni1381   1.898       .  S
O1376      C1386   1.273       .  A
O1377     Ni1382   1.974       .  S
O1377      C1386   1.295       .  A
O1378     Ni1382   1.970       .  S
O1378      C1385   1.295       .  A
O1379     Ni1382   1.901       .  S
O1379      C1384   1.272       .  A
O1380     Ni1382   1.897       .  S
O1380      C1383   1.271       .  A
Ni1381    Ni1382   2.389       .  S
O1387     Ni1395   1.954       .  S
O1387      C1397   1.294       .  A
O1388     Ni1395   1.958       .  S
O1388      C1398   1.290       .  A
O1389     Ni1395   1.886       .  S
O1389      C1399   1.270       .  A
O1390     Ni1395   1.904       .  S
O1390      C1400   1.271       .  A
O1391     Ni1396   1.945       .  S
O1391      C1400   1.290       .  A
O1392     Ni1396   1.900       .  S
O1392      C1399   1.280       .  A
O1393     Ni1396   1.888       .  S
O1393      C1398   1.277       .  A
O1394     Ni1396   1.893       .  S
O1394      C1397   1.269       .  A
Ni1395    Ni1396   2.387       .  S
O1401     Ni1409   1.996       .  S
O1401      C1411   1.300       .  A
O1402     Ni1409   1.971       .  S
O1402      C1412   1.297       .  A
O1403     Ni1409   1.833       .  S
O1403      C1413   1.257       .  A
O1404     Ni1409   1.862       .  S
O1404      C1414   1.256       .  A
O1405     Ni1410   1.992       .  S
O1405      C1414   1.303       .  A
O1406     Ni1410   2.000       .  S
O1406      C1413   1.301       .  A
O1407     Ni1410   1.837       .  S
O1407      C1412   1.257       .  A
O1408     Ni1410   1.861       .  S
O1408      C1411   1.264       .  A
Ni1409    Ni1410   2.377       .  S
O1415     Ni1423   2.021       .  S
O1415      C1425   1.304       .  A
O1416     Ni1423   1.985       .  S
O1416      C1426   1.295       .  A
O1417     Ni1423   1.952       .  S
O1417      C1427   1.283       .  A
O1418     Ni1423   1.896       .  S
O1418      C1428   1.270       .  A
O1419     Ni1424   1.907       .  S
O1419      C1428   1.283       .  A
O1420     Ni1424   1.940       .  S
O1420      C1427   1.290       .  A
O1421     Ni1424   1.882       .  S
O1421      C1426   1.274       .  A
O1422     Ni1424   1.912       .  S
O1422      C1425   1.276       .  A
Ni1423    Ni1424   2.379       .  S
O1429     Ni1437   1.969   1_565  S
O1429      C1439   1.286       .  A
O1430     Ni2445   1.956       .  S
O1430      C1440   1.285       .  A
O1431      C1441   1.289       .  A
O1432     Ni3453   1.967   1_565  S
O1432      C1442   1.290       .  A
O1433     Ni3454   1.913       .  S
O1433      C1442   1.279       .  A
O1434      C1441   1.286       .  A
O1435     Ni2446   1.908       .  S
O1435      C1440   1.282       .  A
O1436     Ni1438   1.945       .  S
O1436      C1439   1.286       .  A
Ni1437     O2438   1.956   1_455  S
Ni1437     O3448   1.967   1_445  S
Ni1437    Ni1438   2.373   1_545  S
Ni1438     O3449   1.913   1_455  S
Ni1438     O2443   1.908   1_465  S
O1443     Ni2459   1.876       .  S
O1443      C1453   1.273       .  A
O1444     Ni1451   1.846       .  S
O1444      C1454   1.266       .  A
O1445     Ni3467   1.823       .  S
O1445      C1455   1.256       .  A
O1446      C1456   1.247       .  A
O1447      C1456   1.285       .  A
O1448     Ni3468   1.929       .  S
O1448      C1455   1.286       .  A
O1449     Ni1452   1.881       .  S
O1449      C1454   1.272       .  A
O1450     Ni2460   1.876       .  S
O1450      C1453   1.266       .  A
Ni1451     O2451   1.876   1_455  S
Ni1451     O3461   1.823       .  S
Ni1451    Ni1452   2.397       .  S
Ni1452     O3464   1.929   1_455  S
Ni1452     O2458   1.876   1_455  S
O1457     Ni1969   1.864   1_565  S
O1457      C1467   1.267       .  A
O1458      C1468   1.264       .  A
O1459     Ni1465   1.897   1_565  S
O1459      C1469   1.284       .  A
O1460      C1470   1.276       .  A
O1461      C1470   1.275       .  A
O1462     Ni1970   1.917       .  S
O1462      C1469   1.270       .  A
O1463      C1468   1.286       .  A
O1464     Ni1466   1.936       .  S
O1464      C1467   1.288       .  A
Ni1465     O1961   1.864   1_544  S
Ni1465    Ni1970   2.385   1_545  S
Ni1466     O1966   1.917       .  S
Ni1466    Ni1969   2.385   1_565  S
O1471     Ni1479   1.939       .  S
O1471      C1481   1.278       .  A
O1472     Ni3999   1.922   1_554  S
O1472      C1482   1.288       .  A
O1473     Ni3495   1.886       .  S
O1473      C1483   1.267       .  A
O1474     Ni1983   1.907   1_554  S
O1474      C1484   1.280       .  A
O1475     Ni1984   1.989   1_554  S
O1475      C1484   1.295       .  A
O1476     Ni3496   1.945       .  S
O1476      C1483   1.284       .  A
O1477     Ni4000   1.984   1_554  S
O1477      C1482   1.291       .  A
O1478     Ni1480   1.954       .  S
O1478      C1481   1.293       .  A
Ni1479     O3992   1.922   1_455  S
Ni1479     O3489   1.886   1_455  S
Ni1479     O1978   1.907       .  S
Ni1479    Ni1480   2.369       .  S
Ni1480     O1979   1.989       .  S
Ni1480     O3492   1.945   1_455  S
Ni1480     O3997   1.984   1_455  S
O1485      C1495   1.284       .  A
O1486     Ni1997   1.953       .  S
O1486      C1496   1.292       .  A
O1487     Ni1493   1.912       .  S
O1487      C1497   1.279       .  A
O1488      C1498   1.285       .  A
O1489      C1498   1.299       .  A
O1490     Ni1494   1.996       .  S
O1490      C1497   1.297       .  A
O1491     Ni1998   1.971       .  S
O1491      C1496   1.287       .  A
O1492      C1495   1.283       .  A
Ni1493     O1990   1.953   1_554  S
Ni1493    Ni1494   2.368       .  S
Ni1494     O1995   1.971   1_554  S
O1499     Ni4027   1.963   1_554  S
O1499      C1509   1.292       .  A
O1500     Ni1507   1.983       .  S
O1500      C1510   1.294       .  A
O1501     Ni3523   1.942       .  S
O1501      C1511   1.277       .  A
O1502     Ni2011   1.918   1_554  S
O1502      C1512   1.275       .  A
O1503     Ni2012   1.973   1_554  S
O1503      C1512   1.295       .  A
O1504     Ni1508   1.974       .  S
O1504      C3527   1.296       .  A
O1505     Ni1508   1.914       .  S
O1505      C1510   1.272       .  A
O1506     Ni2012   1.894   1_554  S
O1506      C3525   1.272   1_455  A
Ni1507     O4019   1.963       .  S
Ni1507     O3517   1.942       .  S
Ni1507     O2006   1.918       .  S
Ni1507    Ni1508   2.370       .  S
Ni1508     O2007   1.973       .  S
Ni1508     O2010   1.894       .  S
C1509      O3522   1.272       .  A
C1511      O3520   1.296       .  A
N1513      C1517   1.366       .  A
N1513      C1514   1.386       .  A
N1513      N1534   1.428       .  S
C1514      C1515   1.380       .  A
C1514      C2002   1.551       .  S
C1515      C1516   1.369       .  A
C1515      H1518   1.069       .  S
C1516      C1517   1.366       .  A
C1516      H1519   1.082       .  S
C1517      N1548   1.438       .  S
N1520      C1524   1.335       .  A
N1520      C1521   1.339       .  A
N1520      C1545   1.432       .  S
C1521      C1522   1.375       .  A
C1521      C1957   1.430       .  S
C1522      C1523   1.373       .  A
C1523      C1524   1.381       .  A
C1523      H1526   1.082       .  S
C1524      C1552   1.449       .  S
N1527      C1531   1.360       .  A
N1527      C1528   1.373       .  A
N1527      C1538   1.461       .  S
C1528      C1529   1.359       .  A
C1528      C1987   1.478       .  S
C1529      C1530   1.365       .  A
C1529      H3548   1.072       .  S
C1530      C1531   1.388       .  A
C1530      H1533   1.059       .  S
C1531      N1541   1.460       .  S
H1532      C3545   1.072       .  S
N1534      C1538   1.363       .  A
N1534      C1535   1.372       .  A
C1535      C1536   1.380       .  A
C1535      C1929   1.538       .  S
C1536      C1537   1.372       .  A
C1536      H1539   1.076       .  S
C1537      C1538   1.387       .  A
C1537      H1540   1.080       .  S
N1541      C1545   1.353       .  A
N1541      C1542   1.357       .  A
C1542      C1543   1.371       .  A
C1542      C1903   1.436       .  S
C1543      C1544   1.356       .  A
C1543      H1546   1.083       .  S
C1544      C1545   1.390       .  A
C1544      H1547   1.079       .  S
N1548      C1552   1.342       .  A
N1548      C1549   1.353       .  A
C1549      C1550   1.381       .  A
C1549      C1888   1.447       .  S
C1550      C1551   1.359       .  A
C1550      H1553   1.080       .  S
C1551      C1552   1.374       .  A
C1551      H1554   1.080       .  S
N1555      C1559   1.388       .  A
N1555      C1556   1.393       .  A
N1555      N1590   1.463       .  S
C1556      C1557   1.364       .  A
C1556      C1985   1.513       .  S
C1557      C1558   1.349       .  A
C1557      H1560   1.082       .  S
C1558      C1559   1.389       .  A
C1558      H1561   1.074       .  S
C1559      N1576   1.480       .  S
N1562      C1566   1.342       .  A
N1562      C1563   1.359       .  A
N1562      C1587   1.462       .  S
C1563      C1564   1.377       .  A
C1563      C1960   1.416       .  S
C1564      C1565   1.370       .  A
C1564      H1567   1.084   1_455  S
C1565      C1566   1.350       .  A
C1565      H1568   1.072   1_455  S
C1566      C1594   1.427       .  S
N1569      C1573   1.345       .  A
N1569      C1570   1.376       .  A
N1569      C1580   1.423       .  S
C1570      C1571   1.377       .  A
C1570      C1974   1.468       .  S
C1571      C1572   1.342       .  A
C1571      H1574   1.082       .  S
C1572      C1573   1.382       .  A
C1572      H1575   1.070       .  S
C1573      N1583   1.407       .  S
N1576      C1580   1.377       .  A
N1576      C1577   1.380       .  A
C1577      C1578   1.361       .  A
C1577      C1932   1.445       .  S
C1578      C1579   1.331       .  A
C1578      H1581   1.083       .  S
C1579      C1580   1.367       .  A
C1579      H1582   1.070       .  S
N1583      C1587   1.353       .  A
N1583      C1584   1.353       .  A
C1584      C1585   1.380       .  A
C1584      C1889   1.486       .  S
C1585      C1586   1.374       .  A
C1585      H1588   1.080       .  S
C1586      C1587   1.386       .  A
C1586      H1589   1.081       .  S
N1590      C1594   1.360       .  A
N1590      C1591   1.400       .  A
C1591      C1592   1.395       .  A
C1591      C1875   1.491       .  S
C1592      C1593   1.353       .  A
C1592      H1595   1.078       .  S
C1593      C1594   1.366       .  A
C1593      H1596   1.083       .  S
N1597      C1601   1.373       .  A
N1597      C1598   1.354       .  A
N1597      C1622   1.465       .  S
C1598      C1599   1.371       .  A
C1598      C1971   1.466       .  S
C1599      C1600   1.347       .  A
C1599      H1602   1.071       .  S
C1600      C1601   1.383       .  A
C1600      H1603   1.080       .  S
C1601      N1632   1.436       .  S
N1604      C1608   1.325       .  A
N1604      C1605   1.326       .  A
N1604      C1636   1.410       .  S
C1605      C1606   1.381       .  A
C1605      C1958   1.405       .  S
C1606      C1607   1.361       .  A
C1606      H1609   1.078       .  S
C1607      C1608   1.377       .  A
C1607      H1610   1.077       .  S
C1608      C1629   1.444       .  S
N1611      C1615   1.363       .  A
N1611      C1612   1.376       .  A
N1611      N1618   1.416       .  S
C1612      C1613   1.374       .  A
C1612      C2014   1.511       .  S
C1613      C1614   1.372       .  A
C1613      H1616   1.081       .  S
C1614      C1615   1.379       .  A
C1614      H1617   1.070       .  S
C1615      N1625   1.448       .  S
N1618      C1622   1.365       .  A
N1618      C1619   1.367       .  A
C1619      C1620   1.373       .  A
C1619      C1930   1.500       .  S
C1620      C1621   1.351       .  A
C1620      H1623   1.081       .  S
C1621      C1622   1.398       .  A
C1621      H1624   1.072       .  S
N1625      C1629   1.340       .  A
N1625      C1626   1.348       .  A
C1626      C1627   1.376       .  A
C1626      C1873   1.449       .  S
C1627      C1628   1.363       .  A
C1627      H1630   1.078       .  S
C1628      C1629   1.368       .  A
C1628      H1631   1.081       .  S
N1632      C1636   1.344       .  A
N1632      C1633   1.346       .  A
C1633      C1634   1.382       .  A
C1633      C1916   1.464       .  S
C1634      C1635   1.362       .  A
C1634      H1637   1.082       .  S
C1635      C1636   1.385       .  A
C1635      H1638   1.081       .  S
N1639      C1643   1.334       .  A
N1639      C1640   1.348       .  A
N1639      C1678   1.439       .  S
C1640      C1641   1.380       .  A
C1640      C1959   1.419       .  S
C1641      C1642   1.362       .  A
C1641      H3660   1.080       .  S
C1642      C1643   1.384       .  A
C1642      H1645   1.082       .  S
C1643      C1664   1.434       .  S
H1644      C3657   1.080   1_455  S
N1646      C1650   1.387       .  A
N1646      C1647   1.389       .  A
N1646      N1667   1.459       .  S
C1647      C1648   1.370       .  A
C1647      C2000   1.534       .  S
C1648      C1649   1.368       .  A
C1648      H1651   1.075       .  S
C1649      C1650   1.380       .  A
C1649      H1652   1.075       .  S
C1650      N1674   1.477       .  S
N1653      C1657   1.391       .  A
N1653      C1654   1.394       .  A
N1653      C1671   1.483       .  S
C1654      C1655   1.382       .  A
C1654      C2015   1.523       .  S
C1655      C1656   1.374       .  A
C1655      H3674   1.082       .  S
C1656      C1657   1.381       .  A
C1656      H1659   1.080       .  S
C1657      N1660   1.465       .  S
H1658      C3671   1.082   1_455  S
N1660      C1664   1.336       .  A
N1660      C1661   1.364       .  A
C1661      C1662   1.393       .  A
C1661      C1902   1.494       .  S
C1662      C1663   1.362       .  A
C1662      H1665   1.084       .  S
C1663      C1664   1.365       .  A
C1663      H1666   1.070       .  S
N1667      C1671   1.385       .  A
N1667      C1668   1.380       .  A
C1668      C1669   1.363       .  A
C1668      C1931   1.510       .  S
C1669      C1670   1.362       .  A
C1669      H1672   1.069       .  S
C1670      C1671   1.391       .  A
C1670      H1673   1.078       .  S
N1674      C1678   1.354       .  A
N1674      C1675   1.392       .  A
C1675      C1676   1.376       .  A
C1675      C1918   1.494       .  S
C1676      C1677   1.368       .  A
C1676      H1679   1.082       .  S
C1677      C1678   1.387       .  A
C1677      H1680   1.078       .  S
N1681      C1685   1.367       .  A
N1681      C1682   1.355       .  A
N1681      C1706   1.412       .  S
C1682      C1683   1.383       .  A
C1682      C2016   1.521       .  S
C1683      C1684   1.391       .  A
C1683      H1686   1.082       .  S
C1684      C1685   1.389       .  A
C1684      H1687   1.074       .  S
C1685      C1720   1.514       .  S
N1688      C1692   1.371       .  A
N1688      C1689   1.395       .  A
N1688      N1716   1.438       .  S
C1689      C1690   1.382       .  A
C1689      C1943   1.513       .  S
C1690      C1691   1.365       .  A
C1690      H1693   1.083       .  S
C1691      C1692   1.377       .  A
C1691      H1694   1.074       .  S
C1692      N1709   1.443       .  S
N1695      C1699   1.360       .  A
N1695      C1696   1.376       .  A
N1695      N1702   1.431       .  S
C1696      C1697   1.384       .  A
C1696      C1973   1.464       .  S
C1697      C1698   1.343       .  A
C1697      H1700   1.083       .  S
C1698      C1699   1.379       .  A
C1698      H1701   1.083       .  S
C1699      C1713   1.458       .  S
N1702      C1706   1.356       .  A
N1702      C1703   1.368       .  A
C1703      C1704   1.377       .  A
C1703      C1859   1.446       .  S
C1704      C1705   1.344       .  A
C1704      H1707   1.082       .  S
C1705      C1706   1.377       .  A
C1705      H1708   1.079       .  S
N1709      C1713   1.357       .  A
N1709      C1710   1.358       .  A
C1710      C1711   1.376       .  A
C1710      C1917   1.493       .  S
C1711      C1712   1.360       .  A
C1711      H1714   1.083       .  S
C1712      C1713   1.379       .  A
C1712      H1715   1.068       .  S
N1716      C1720   1.380       .  A
N1716      C1717   1.407       .  A
C1717      C1718   1.370       .  A
C1717      C1876   1.523       .  S
C1718      C1719   1.355       .  A
C1718      H1721   1.077       .  S
C1719      C1720   1.376       .  A
C1719      H1722   1.075       .  S
N1723      C1727   1.401       .  A
N1723      C1724   1.367       .  A
N1723      N1744   1.435       .  S
C1724      C1725   1.371       .  A
C1724      C2001   1.519       .  S
C1725      C1726   1.364       .  A
C1725      H1728   1.071       .  S
C1726      C1727   1.386       .  A
C1726      H1729   1.076       .  S
C1727      N1758   1.503       .  S
N1730      C1734   1.368       .  A
N1730      C1731   1.381       .  A
N1730      C1762   1.466       .  S
C1731      C1732   1.383       .  A
C1731      C1946   1.503       .  S
C1732      C1733   1.367       .  A
C1732      H3751   1.083       .  S
C1733      C1734   1.380       .  A
C1733      H3752   1.076       .  S
C1734      N1751   1.441       .  S
H1735      C3748   1.083   1_455  S
H1736      C3749   1.076       .  S
N1737      C1741   1.352       .  A
N1737      C1738   1.359       .  A
N1737      C1748   1.412       .  S
C1738      C1739   1.382       .  A
C1738      C2013   1.485       .  S
C1739      C1740   1.371       .  A
C1739      H3758   1.056       .  S
C1740      C1741   1.367       .  A
C1740      H1743   1.076       .  S
C1741      C1755   1.504       .  S
H1742      C3755   1.056       .  S
N1744      C1748   1.361       .  A
N1744      C1745   1.387       .  A
C1745      C1746   1.383       .  A
C1745      C1861   1.497       .  S
C1746      C1747   1.361       .  A
C1746      H1749   1.084       .  S
C1747      C1748   1.374       .  A
C1747      H1750   1.081       .  S
N1751      C1755   1.356       .  A
N1751      C1752   1.372       .  A
C1752      C1753   1.381       .  A
C1752      C1904   1.486       .  S
C1753      C1754   1.371       .  A
C1753      H1756   1.083       .  S
C1754      C1755   1.381       .  A
C1754      H1757   1.073       .  S
N1758      C1762   1.370       .  A
N1758      C1759   1.369       .  A
C1759      C1760   1.384       .  A
C1759      C1915   1.498       .  S
C1760      C1761   1.357       .  A
C1760      H1763   1.083       .  S
C1761      C1762   1.380       .  A
C1761      H1764   1.076       .  S
N1765      C1769   1.382       .  A
N1765      C1766   1.391       .  A
N1765      N1786   1.463       .  S
C1766      C1767   1.390       .  A
C1766      C1986   1.537       .  S
C1767      C1768   1.356       .  A
C1767      H1770   1.083       .  S
C1768      C1769   1.379       .  A
C1768      H1771   1.083       .  S
C1769      C1804   1.477       .  S
N1772      C1776   1.367       .  A
N1772      C1773   1.376       .  A
N1772      N1800   1.433       .  S
C1773      C1774   1.384       .  A
C1773      C1944   1.485       .  S
C1774      C1775   1.360       .  A
C1775      C1776   1.375       .  A
C1775      H1778   1.080       .  S
C1776      N1793   1.428       .  S
N1779      C1783   1.367       .  A
N1779      C1780   1.365       .  A
N1779      C1790   1.438       .  S
C1780      C1781   1.379       .  A
C1780      C1999   1.494       .  S
C1781      C1782   1.378       .  A
C1782      C1783   1.385       .  A
C1782      H1785   1.079       .  S
C1783      C1797   1.506       .  S
N1786      C1790   1.375       .  A
N1786      C1787   1.400       .  A
C1787      C1788   1.392       .  A
C1787      C1860   1.523       .  S
C1788      C1789   1.349       .  A
C1788      H1791   1.085       .  S
C1789      C1790   1.368       .  A
C1789      H1792   1.081       .  S
N1793      C1797   1.353       .  A
N1793      C1794   1.362       .  A
C1794      C1795   1.381       .  A
C1794      C1890   1.500       .  S
C1795      C1796   1.391       .  A
C1795      H1798   1.080       .  S
C1796      C1797   1.369       .  A
C1796      H1799   1.077       .  S
N1800      C1804   1.371       .  A
N1800      C1801   1.374       .  A
C1801      C1802   1.385       .  A
C1801      C1901   1.475       .  S
C1802      C1803   1.368       .  A
C1802      H1805   1.083       .  S
C1803      C1804   1.378       .  A
C1803      H1806   1.082       .  S
N1807      C1811   1.387       .  A
N1807      C1808   1.407       .  A
N1807      N1842   1.467       .  S
C1808      C1809   1.381       .  A
C1808      C1988   1.506       .  S
C1809      C1810   1.332       .  A
C1809      H1812   1.085       .  S
C1810      C1811   1.370       .  A
C1810      H1813   1.078       .  S
C1811      C1839   1.467       .  S
N1814      C1818   1.352       .  A
N1814      C1815   1.366       .  A
N1814      C1846   1.460       .  S
C1815      C1816   1.378       .  A
C1815      C1972   1.454       .  S
C1816      C1817   1.371       .  A
C1816      H1819   1.081       .  S
C1817      C1818   1.381       .  A
C1817      H1820   1.082       .  S
C1818      C1832   1.471       .  S
N1821      C1825   1.343       .  A
N1821      C1822   1.374       .  A
N1821      N1835   1.436       .  S
C1822      C1823   1.378       .  A
C1822      C1945   1.530       .  S
C1823      C1824   1.367       .  A
C1823      H1826   1.076       .  S
C1824      C1825   1.361       .  A
C1824      H1827   1.074       .  S
C1825      N1828   1.425       .  S
N1828      C1832   1.347       .  A
N1828      C1829   1.340       .  A
C1829      C1830   1.374       .  A
C1829      C1887   1.455       .  S
C1830      C1831   1.365       .  A
C1830      H1833   1.061       .  S
C1831      C1832   1.373       .  A
C1831      H1834   1.081       .  S
N1835      C1839   1.360       .  A
N1835      C1836   1.384       .  A
C1836      C1837   1.387       .  A
C1836      C1874   1.506       .  S
C1837      C1838   1.380       .  A
C1837      H1840   1.083       .  S
C1838      C1839   1.376       .  A
C1838      H1841   1.082       .  S
N1842      C1846   1.369       .  A
N1842      C1843   1.409       .  A
C1843      C1844   1.387       .  A
C1843      C1862   1.588       .  S
C1844      C1845   1.365       .  A
C1844      H1847   1.082       .  S
C1845      C1846   1.378       .  A
C1845      H1848   1.068       .  S
O1849     Ni1857   1.893       .  S
O1849      C1859   1.276       .  A
O1850     Ni1857   1.948       .  S
O1850      C1860   1.281       .  A
O1851     Ni1857   1.978       .  S
O1851      C1861   1.291       .  A
O1852     Ni1857   2.024       .  S
O1852      C1862   1.301       .  A
O1853     Ni1858   1.973       .  S
O1853      C1862   1.296       .  A
O1854     Ni1858   1.918       .  S
O1854      C1861   1.281       .  A
O1855     Ni1858   1.956       .  S
O1855      C1860   1.293       .  A
O1856     Ni1858   1.910       .  S
O1856      C1859   1.276       .  A
Ni1857    Ni1858   2.369       .  S
O1863     Ni1871   1.899       .  S
O1863      C1873   1.286       .  A
O1864     Ni1871   1.985       .  S
O1864      C1874   1.301       .  A
O1865     Ni1871   1.884       .  S
O1865      C1875   1.274       .  A
O1866     Ni1871   1.924       .  S
O1866      C1876   1.272       .  A
O1867     Ni1872   2.016       .  S
O1867      C1876   1.309       .  A
O1868     Ni1872   1.964       .  S
O1868      C1875   1.300       .  A
O1869     Ni1872   1.906       .  S
O1869      C1874   1.270       .  A
O1870     Ni1872   1.852       .  S
O1870      C1873   1.262       .  A
Ni1871    Ni1872   2.384       .  S
O1877     Ni1885   1.915       .  S
O1877      C1887   1.285       .  A
O1878     Ni1885   1.909       .  S
O1878      C1888   1.283       .  A
O1879     Ni1885   1.894       .  S
O1879      C1889   1.271       .  A
O1880     Ni1885   1.898       .  S
O1880      C1890   1.273       .  A
O1881     Ni1886   1.974       .  S
O1881      C1890   1.295       .  A
O1882     Ni1886   1.970       .  S
O1882      C1889   1.295       .  A
O1883     Ni1886   1.901       .  S
O1883      C1888   1.272       .  A
O1884     Ni1886   1.897       .  S
O1884      C1887   1.271       .  A
Ni1885    Ni1886   2.389       .  S
O1891     Ni1899   1.954       .  S
O1891      C1901   1.294       .  A
O1892     Ni1899   1.958       .  S
O1892      C1902   1.290       .  A
O1893     Ni1899   1.886       .  S
O1893      C1903   1.270       .  A
O1894     Ni1899   1.904       .  S
O1894      C1904   1.271       .  A
O1895     Ni1900   1.945       .  S
O1895      C1904   1.290       .  A
O1896     Ni1900   1.900       .  S
O1896      C1903   1.280       .  A
O1897     Ni1900   1.888       .  S
O1897      C1902   1.277       .  A
O1898     Ni1900   1.893       .  S
O1898      C1901   1.269       .  A
Ni1899    Ni1900   2.387       .  S
O1905     Ni1913   1.996       .  S
O1905      C1915   1.300       .  A
O1906     Ni1913   1.971       .  S
O1906      C1916   1.297       .  A
O1907     Ni1913   1.833       .  S
O1907      C1917   1.257       .  A
O1908     Ni1913   1.862       .  S
O1908      C1918   1.256       .  A
O1909     Ni1914   1.992       .  S
O1909      C1918   1.303       .  A
O1910     Ni1914   2.000       .  S
O1910      C1917   1.301       .  A
O1911     Ni1914   1.837       .  S
O1911      C1916   1.257       .  A
O1912     Ni1914   1.861       .  S
O1912      C1915   1.264       .  A
Ni1913    Ni1914   2.377       .  S
O1919     Ni1927   2.021       .  S
O1919      C1929   1.304       .  A
O1920     Ni1927   1.985       .  S
O1920      C1930   1.295       .  A
O1921     Ni1927   1.952       .  S
O1921      C1931   1.283       .  A
O1922     Ni1927   1.896       .  S
O1922      C1932   1.270       .  A
O1923     Ni1928   1.907       .  S
O1923      C1932   1.283       .  A
O1924     Ni1928   1.940       .  S
O1924      C1931   1.290       .  A
O1925     Ni1928   1.882       .  S
O1925      C1930   1.274       .  A
O1926     Ni1928   1.912       .  S
O1926      C1929   1.276       .  A
Ni1927    Ni1928   2.379       .  S
O1933     Ni1941   1.969   1_565  S
O1933      C1943   1.286       .  A
O1934     Ni2949   1.956       .  S
O1934      C1944   1.285       .  A
O1935      C1945   1.289       .  A
O1936     Ni3957   1.967   1_565  S
O1936      C1946   1.290       .  A
O1937     Ni3958   1.913       .  S
O1937      C1946   1.279       .  A
O1938      C1945   1.286       .  A
O1939     Ni2950   1.908       .  S
O1939      C1944   1.282       .  A
O1940     Ni1942   1.945       .  S
O1940      C1943   1.286       .  A
Ni1941     O2942   1.956   1_455  S
Ni1941     O3952   1.967   1_445  S
Ni1941    Ni1942   2.373   1_545  S
Ni1942     O3953   1.913   1_455  S
Ni1942     O2947   1.908   1_465  S
O1947     Ni2963   1.876       .  S
O1947      C1957   1.273       .  A
O1948     Ni1955   1.846       .  S
O1948      C1958   1.266       .  A
O1949     Ni3971   1.823       .  S
O1949      C1959   1.256       .  A
O1950      C1960   1.247       .  A
O1951      C1960   1.285       .  A
O1952     Ni3972   1.929       .  S
O1952      C1959   1.286       .  A
O1953     Ni1956   1.881       .  S
O1953      C1958   1.272       .  A
O1954     Ni2964   1.876       .  S
O1954      C1957   1.266       .  A
Ni1955     O2955   1.876   1_455  S
Ni1955     O3965   1.823       .  S
Ni1955    Ni1956   2.397       .  S
Ni1956     O3968   1.929   1_455  S
Ni1956     O2962   1.876   1_455  S
O1961      C1971   1.267       .  A
O1962      C1972   1.264       .  A
O1963     Ni1969   1.897   1_565  S
O1963      C1973   1.284       .  A
O1964      C1974   1.276       .  A
O1965      C1974   1.275       .  A
O1966      C1973   1.270       .  A
O1967      C1972   1.286       .  A
O1968     Ni1970   1.936   1_556  S
O1968      C1971   1.288       .  A
O1975     Ni1983   1.939       .  S
O1975      C1985   1.278       .  A
O1976     Ni3495   1.922       .  S
O1976      C1986   1.288       .  A
O1977     Ni3999   1.886       .  S
O1977      C1987   1.267       .  A
O1978      C1988   1.280       .  A
O1979      C1988   1.295       .  A
O1980     Ni4000   1.945       .  S
O1980      C1987   1.284       .  A
O1981     Ni3496   1.984       .  S
O1981      C1986   1.291       .  A
O1982     Ni1984   1.954       .  S
O1982      C1985   1.293       .  A
Ni1983     O3488   1.922   1_456  S
Ni1983     O3993   1.886   1_455  S
Ni1983    Ni1984   2.369       .  S
Ni1984     O3996   1.945   1_455  S
Ni1984     O3493   1.984   1_456  S
O1989      C1999   1.284       .  A
O1990      C2000   1.292       .  A
O1991     Ni1997   1.912       .  S
O1991      C2001   1.279       .  A
O1992      C2002   1.285       .  A
O1993      C2002   1.299       .  A
O1994     Ni1998   1.996       .  S
O1994      C2001   1.297       .  A
O1995      C2000   1.287       .  A
O1996      C1999   1.283       .  A
Ni1997    Ni1998   2.368       .  S
O2003     Ni3523   1.963       .  S
O2003      C2013   1.292       .  A
O2004     Ni2011   1.983       .  S
O2004      C2014   1.294       .  A
O2005     Ni4027   1.942       .  S
O2005      C2015   1.277       .  A
O2006      C2016   1.275       .  A
O2007      C2016   1.295       .  A
O2008     Ni2012   1.974       .  S
O2008      C4031   1.296       .  A
O2009     Ni2012   1.914       .  S
O2009      C2014   1.272       .  A
O2010      C4029   1.272   1_455  A
Ni2011     O3515   1.963   1_556  S
Ni2011     O4021   1.942       .  S
Ni2011    Ni2012   2.370       .  S
C2013      O4026   1.272       .  A
C2015      O4024   1.296       .  A
N2017      C2021   1.366       .  A
N2017      C2018   1.386       .  A
N2017      N2038   1.428       .  S
C2018      C2019   1.380       .  A
C2018      C2506   1.551       .  S
C2019      C2020   1.369       .  A
C2019      H2022   1.069       .  S
C2020      C2021   1.366       .  A
C2020      H2023   1.082       .  S
C2021      N2052   1.438       .  S
N2024      C2028   1.335       .  A
N2024      C2025   1.339       .  A
N2024      C2049   1.432       .  S
C2025      C2026   1.375   1_545  A
C2025      C2461   1.430   1_545  S
C2026      C2027   1.373   1_565  A
C2026      H3037   1.074       .  S
C2027      C2028   1.381       .  A
C2027      H2030   1.082   1_545  S
C2028      C2056   1.449       .  S
H2029      C3034   1.074       .  S
N2031      C2035   1.360       .  A
N2031      C2032   1.373       .  A
N2031      C2042   1.461       .  S
C2032      C2033   1.359       .  A
C2032      C2491   1.478       .  S
C2033      C2034   1.365       .  A
C2034      C2035   1.388       .  A
C2034      H2037   1.059       .  S
C2035      N2045   1.460       .  S
N2038      C2042   1.363       .  A
N2038      C2039   1.372       .  A
C2039      C2040   1.380       .  A
C2039      C2433   1.538       .  S
C2040      C2041   1.372       .  A
C2040      H2043   1.076       .  S
C2041      C2042   1.387       .  A
C2041      H2044   1.080       .  S
N2045      C2049   1.353       .  A
N2045      C2046   1.357       .  A
C2046      C2047   1.371       .  A
C2046      C2407   1.436       .  S
C2047      C2048   1.356       .  A
C2047      H2050   1.083       .  S
C2048      C2049   1.390       .  A
C2048      H2051   1.079       .  S
N2052      C2056   1.342       .  A
N2052      C2053   1.353       .  A
C2053      C2054   1.381       .  A
C2053      C2392   1.447       .  S
C2054      C2055   1.359       .  A
C2054      H2057   1.080       .  S
C2055      C2056   1.374       .  A
C2055      H2058   1.080       .  S
N2059      C2063   1.388       .  A
N2059      C2060   1.393       .  A
N2059      N2094   1.463       .  S
C2060      C2061   1.364       .  A
C2060      C2489   1.513       .  S
C2061      C2062   1.349       .  A
C2061      H2064   1.082       .  S
C2062      C2063   1.389       .  A
C2062      H2065   1.074       .  S
C2063      N2080   1.480       .  S
N2066      C2070   1.342       .  A
N2066      C2067   1.359       .  A
N2066      C2091   1.462       .  S
C2067      C2068   1.377       .  A
C2067      C2464   1.416       .  S
C2068      C2069   1.370       .  A
C2068      H2071   1.084       .  S
C2069      C2070   1.350       .  A
C2069      H2072   1.072       .  S
C2070      C2098   1.427       .  S
N2073      C2077   1.345       .  A
N2073      C2074   1.376       .  A
N2073      C2084   1.423       .  S
C2074      C2075   1.377       .  A
C2074      C2478   1.468       .  S
C2075      C2076   1.342       .  A
C2075      H2078   1.082   1_545  S
C2076      C2077   1.382       .  A
C2076      H2079   1.070       .  S
C2077      N2087   1.407       .  S
N2080      C2084   1.377       .  A
N2080      C2081   1.380       .  A
C2081      C2082   1.361       .  A
C2081      C2436   1.445       .  S
C2082      C2083   1.331       .  A
C2082      H2085   1.083       .  S
C2083      C2084   1.367       .  A
C2083      H2086   1.070       .  S
N2087      C2091   1.353       .  A
N2087      C2088   1.353       .  A
C2088      C2089   1.380       .  A
C2088      C2393   1.486       .  S
C2089      C2090   1.374       .  A
C2089      H2092   1.080       .  S
C2090      C2091   1.386       .  A
C2090      H2093   1.081       .  S
N2094      C2098   1.360       .  A
N2094      C2095   1.400       .  A
C2095      C2096   1.395       .  A
C2095      C2379   1.491       .  S
C2096      C2097   1.353       .  A
C2096      H2099   1.078       .  S
C2097      C2098   1.366       .  A
C2097      H2100   1.083       .  S
N2101      C2105   1.373       .  A
N2101      C2102   1.354       .  A
N2101      C2126   1.465       .  S
C2102      C2103   1.371       .  A
C2102      C2475   1.466       .  S
C2103      C2104   1.347       .  A
C2103      H2106   1.071       .  S
C2104      C2105   1.383       .  A
C2104      H2107   1.080       .  S
C2105      N2136   1.436       .  S
N2108      C2112   1.325       .  A
N2108      C2109   1.326       .  A
N2108      C2140   1.410       .  S
C2109      C2110   1.381       .  A
C2109      C2462   1.405       .  S
C2110      C2111   1.361       .  A
C2110      H2113   1.078       .  S
C2111      C2112   1.377       .  A
C2111      H2114   1.077       .  S
C2112      C2133   1.444       .  S
N2115      C2119   1.363       .  A
N2115      C2116   1.376       .  A
N2115      N2122   1.416       .  S
C2116      C2117   1.374       .  A
C2116      C2518   1.511       .  S
C2117      C2118   1.372       .  A
C2117      H2120   1.081       .  S
C2118      C2119   1.379       .  A
C2118      H2121   1.070       .  S
C2119      N2129   1.448       .  S
N2122      C2126   1.365       .  A
N2122      C2123   1.367       .  A
C2123      C2124   1.373       .  A
C2123      C2434   1.500       .  S
C2124      C2125   1.351       .  A
C2124      H2127   1.081       .  S
C2125      C2126   1.398       .  A
C2125      H2128   1.072       .  S
N2129      C2133   1.340       .  A
N2129      C2130   1.348       .  A
C2130      C2131   1.376       .  A
C2130      C2377   1.449       .  S
C2131      C2132   1.363       .  A
C2131      H2134   1.078       .  S
C2132      C2133   1.368       .  A
C2132      H2135   1.081       .  S
N2136      C2140   1.344       .  A
N2136      C2137   1.346       .  A
C2137      C2138   1.382       .  A
C2137      C2420   1.464       .  S
C2138      C2139   1.362       .  A
C2138      H2141   1.082       .  S
C2139      C2140   1.385       .  A
C2139      H2142   1.081       .  S
N2143      C2147   1.334       .  A
N2143      C2144   1.348       .  A
N2143      C2182   1.439       .  S
C2144      C2145   1.380       .  A
C2144      C2463   1.419   1_655  S
C2145      C2146   1.362       .  A
C2146      C2147   1.384       .  A
C2146      H2149   1.082       .  S
C2147      C2168   1.434       .  S
N2150      C2154   1.387       .  A
N2150      C2151   1.389       .  A
N2150      N2171   1.459       .  S
C2151      C2152   1.370       .  A
C2151      C2504   1.534       .  S
C2152      C2153   1.368       .  A
C2152      H2155   1.075       .  S
C2153      C2154   1.380       .  A
C2153      H2156   1.075       .  S
C2154      N2178   1.477       .  S
N2157      C2161   1.391       .  A
N2157      C2158   1.394       .  A
N2157      C2175   1.483       .  S
C2158      C2159   1.382       .  A
C2158      C2519   1.523   1_655  S
C2159      C2160   1.374       .  A
C2160      C2161   1.381       .  A
C2160      H2163   1.080       .  S
C2161      N2164   1.465       .  S
N2164      C2168   1.336       .  A
N2164      C2165   1.364       .  A
C2165      C2166   1.393       .  A
C2165      C2406   1.494       .  S
C2166      C2167   1.362       .  A
C2166      H2169   1.084       .  S
C2167      C2168   1.365       .  A
C2167      H2170   1.070       .  S
N2171      C2175   1.385       .  A
N2171      C2172   1.380       .  A
C2172      C2173   1.363       .  A
C2172      C2435   1.510       .  S
C2173      C2174   1.362       .  A
C2173      H2176   1.069       .  S
C2174      C2175   1.391       .  A
C2174      H2177   1.078       .  S
N2178      C2182   1.354       .  A
N2178      C2179   1.392       .  A
C2179      C2180   1.376       .  A
C2179      C2422   1.495       .  S
C2180      C2181   1.368       .  A
C2180      H2183   1.082       .  S
C2181      C2182   1.387       .  A
C2181      H2184   1.078       .  S
N2185      C2189   1.367       .  A
N2185      C2186   1.355       .  A
N2185      C2210   1.412       .  S
C2186      C2187   1.383       .  A
C2186      C2520   1.521       .  S
C2187      C2188   1.391       .  A
C2187      H2190   1.082       .  S
C2188      C2189   1.389       .  A
C2188      H2191   1.074       .  S
C2189      C2224   1.514       .  S
N2192      C2196   1.371       .  A
N2192      C2193   1.395       .  A
N2192      N2220   1.438       .  S
C2193      C2194   1.382       .  A
C2193      C2447   1.513       .  S
C2194      C2195   1.365       .  A
C2194      H2197   1.083       .  S
C2195      C2196   1.377       .  A
C2195      H2198   1.074       .  S
C2196      N2213   1.443       .  S
N2199      C2203   1.360       .  A
N2199      C2200   1.376       .  A
N2199      N2206   1.431       .  S
C2200      C2201   1.384       .  A
C2200      C2477   1.464       .  S
C2201      C2202   1.343       .  A
C2201      H2204   1.083       .  S
C2202      C2203   1.379       .  A
C2202      H2205   1.083       .  S
C2203      C2217   1.458       .  S
N2206      C2210   1.356       .  A
N2206      C2207   1.368       .  A
C2207      C2208   1.377       .  A
C2207      C2363   1.446       .  S
C2208      C2209   1.344       .  A
C2208      H2211   1.082       .  S
C2209      C2210   1.378       .  A
C2209      H2212   1.079       .  S
N2213      C2217   1.357       .  A
N2213      C2214   1.358       .  A
C2214      C2215   1.376       .  A
C2214      C2421   1.493       .  S
C2215      C2216   1.360       .  A
C2215      H2218   1.083       .  S
C2216      C2217   1.379       .  A
C2216      H2219   1.068       .  S
N2220      C2224   1.380       .  A
N2220      C2221   1.407       .  A
C2221      C2222   1.370       .  A
C2221      C2380   1.523       .  S
C2222      C2223   1.355       .  A
C2222      H2225   1.077       .  S
C2223      C2224   1.376       .  A
C2223      H2226   1.075       .  S
N2227      C2231   1.401       .  A
N2227      C2228   1.367       .  A
N2227      N2248   1.435       .  S
C2228      C2229   1.371       .  A
C2228      C2505   1.519       .  S
C2229      C2230   1.364       .  A
C2229      H2232   1.071       .  S
C2230      C2231   1.386       .  A
C2230      H2233   1.076       .  S
C2231      N2262   1.503       .  S
N2234      C2238   1.368       .  A
N2234      C2235   1.381       .  A
N2234      C2266   1.466       .  S
C2235      C2236   1.383       .  A
C2235      C2450   1.503       .  S
C2236      C2237   1.367       .  A
C2237      C2238   1.380       .  A
C2238      N2255   1.441       .  S
N2241      C2245   1.352       .  A
N2241      C2242   1.359       .  A
N2241      C2252   1.412       .  S
C2242      C2243   1.382   1_655  A
C2242      C2517   1.485       .  S
C2243      C2244   1.371   1_455  A
C2244      C2245   1.367       .  A
C2244      H2247   1.076   1_655  S
C2245      C2259   1.504       .  S
N2248      C2252   1.361       .  A
N2248      C2249   1.387       .  A
C2249      C2250   1.383       .  A
C2249      C2365   1.497       .  S
C2250      C2251   1.361       .  A
C2250      H2253   1.084       .  S
C2251      C2252   1.374       .  A
C2251      H2254   1.081       .  S
N2255      C2259   1.356       .  A
N2255      C2256   1.372       .  A
C2256      C2257   1.381       .  A
C2256      C2408   1.486       .  S
C2257      C2258   1.371       .  A
C2257      H2260   1.083       .  S
C2258      C2259   1.381       .  A
C2258      H2261   1.073       .  S
N2262      C2266   1.370       .  A
N2262      C2263   1.369       .  A
C2263      C2264   1.384       .  A
C2263      C2419   1.498       .  S
C2264      C2265   1.357       .  A
C2264      H2267   1.083       .  S
C2265      C2266   1.380       .  A
C2265      H2268   1.076       .  S
N2269      C2273   1.382       .  A
N2269      C2270   1.391       .  A
N2269      N2290   1.463       .  S
C2270      C2271   1.390       .  A
C2270      C2490   1.537       .  S
C2271      C2272   1.356       .  A
C2271      H2274   1.083       .  S
C2272      C2273   1.379       .  A
C2272      H2275   1.083       .  S
C2273      C2308   1.477       .  S
N2276      C2280   1.367       .  A
N2276      C2277   1.376       .  A
N2276      N2304   1.433       .  S
C2277      C2278   1.384       .  A
C2277      C2448   1.485       .  S
C2278      C2279   1.360       .  A
C2278      H3289   1.083       .  S
C2279      C2280   1.375       .  A
C2279      H2282   1.080       .  S
C2280      N2297   1.428       .  S
H2281      C3286   1.083       .  S
N2283      C2287   1.367       .  A
N2283      C2284   1.365       .  A
N2283      C2294   1.438       .  S
C2284      C2285   1.379       .  A
C2284      C2503   1.494       .  S
C2285      C2286   1.378       .  A
C2285      H3296   1.083   1_545  S
C2286      C2287   1.385       .  A
C2286      H2289   1.079       .  S
C2287      C2301   1.506       .  S
H2288      C3293   1.083       .  S
N2290      C2294   1.375       .  A
N2290      C2291   1.400       .  A
C2291      C2292   1.392       .  A
C2291      C2364   1.523       .  S
C2292      C2293   1.349       .  A
C2292      H2295   1.085       .  S
C2293      C2294   1.368       .  A
C2293      H2296   1.081       .  S
N2297      C2301   1.353       .  A
N2297      C2298   1.362       .  A
C2298      C2299   1.381       .  A
C2298      C2394   1.500       .  S
C2299      C2300   1.391       .  A
C2299      H2302   1.080       .  S
C2300      C2301   1.369       .  A
C2300      H2303   1.077       .  S
N2304      C2308   1.371       .  A
N2304      C2305   1.374       .  A
C2305      C2306   1.385       .  A
C2305      C2405   1.475       .  S
C2306      C2307   1.368       .  A
C2306      H2309   1.083       .  S
C2307      C2308   1.378       .  A
C2307      H2310   1.082       .  S
N2311      C2315   1.387       .  A
N2311      C2312   1.407       .  A
N2311      N2346   1.467       .  S
C2312      C2313   1.381       .  A
C2312      C2492   1.506       .  S
C2313      C2314   1.332       .  A
C2313      H2316   1.085       .  S
C2314      C2315   1.370       .  A
C2314      H2317   1.078       .  S
C2315      C2343   1.467       .  S
N2318      C2322   1.352       .  A
N2318      C2319   1.366       .  A
N2318      C2350   1.460       .  S
C2319      C2320   1.378       .  A
C2319      C2476   1.454       .  S
C2320      C2321   1.371       .  A
C2320      H2323   1.081       .  S
C2321      C2322   1.381       .  A
C2321      H2324   1.082       .  S
C2322      C2336   1.471       .  S
N2325      C2329   1.343       .  A
N2325      C2326   1.374       .  A
N2325      N2339   1.436       .  S
C2326      C2327   1.378       .  A
C2326      C2449   1.530       .  S
C2327      C2328   1.367       .  A
C2327      H2330   1.076       .  S
C2328      C2329   1.361       .  A
C2328      H2331   1.074       .  S
C2329      N2332   1.425       .  S
N2332      C2336   1.347       .  A
N2332      C2333   1.340       .  A
C2333      C2334   1.374       .  A
C2333      C2391   1.455       .  S
C2334      C2335   1.365       .  A
C2334      H2337   1.061       .  S
C2335      C2336   1.373       .  A
C2335      H2338   1.081       .  S
N2339      C2343   1.360       .  A
N2339      C2340   1.384       .  A
C2340      C2341   1.387       .  A
C2340      C2378   1.506       .  S
C2341      C2342   1.380       .  A
C2341      H2344   1.083       .  S
C2342      C2343   1.376       .  A
C2342      H2345   1.082       .  S
N2346      C2350   1.369       .  A
N2346      C2347   1.409       .  A
C2347      C2348   1.387       .  A
C2347      C2366   1.588       .  S
C2348      C2349   1.365       .  A
C2348      H2351   1.082       .  S
C2349      C2350   1.378       .  A
C2349      H2352   1.068       .  S
O2353     Ni2361   1.893       .  S
O2353      C2363   1.276       .  A
O2354     Ni2361   1.948       .  S
O2354      C2364   1.281       .  A
O2355     Ni2361   1.978       .  S
O2355      C2365   1.291       .  A
O2356     Ni2361   2.024       .  S
O2356      C2366   1.301       .  A
O2357     Ni2362   1.973       .  S
O2357      C2366   1.296       .  A
O2358     Ni2362   1.918       .  S
O2358      C2365   1.281       .  A
O2359     Ni2362   1.956       .  S
O2359      C2364   1.293       .  A
O2360     Ni2362   1.910       .  S
O2360      C2363   1.276       .  A
Ni2361    Ni2362   2.369       .  S
O2367     Ni2375   1.899       .  S
O2367      C2377   1.286       .  A
O2368     Ni2375   1.985       .  S
O2368      C2378   1.301       .  A
O2369     Ni2375   1.884       .  S
O2369      C2379   1.274       .  A
O2370     Ni2375   1.924       .  S
O2370      C2380   1.272       .  A
O2371     Ni2376   2.016       .  S
O2371      C2380   1.309       .  A
O2372     Ni2376   1.964       .  S
O2372      C2379   1.300       .  A
O2373     Ni2376   1.906       .  S
O2373      C2378   1.270       .  A
O2374     Ni2376   1.852       .  S
O2374      C2377   1.262       .  A
Ni2375    Ni2376   2.384       .  S
O2381     Ni2389   1.915       .  S
O2381      C2391   1.285       .  A
O2382     Ni2389   1.909       .  S
O2382      C2392   1.283       .  A
O2383     Ni2389   1.894       .  S
O2383      C2393   1.271       .  A
O2384     Ni2389   1.898       .  S
O2384      C2394   1.273       .  A
O2385     Ni2390   1.974       .  S
O2385      C2394   1.295       .  A
O2386     Ni2390   1.970       .  S
O2386      C2393   1.295       .  A
O2387     Ni2390   1.901       .  S
O2387      C2392   1.272       .  A
O2388     Ni2390   1.897       .  S
O2388      C2391   1.271       .  A
Ni2389    Ni2390   2.389       .  S
O2395     Ni2403   1.954       .  S
O2395      C2405   1.294       .  A
O2396     Ni2403   1.958       .  S
O2396      C2406   1.290       .  A
O2397     Ni2403   1.886       .  S
O2397      C2407   1.270       .  A
O2398     Ni2403   1.904       .  S
O2398      C2408   1.271       .  A
O2399     Ni2404   1.945       .  S
O2399      C2408   1.290       .  A
O2400     Ni2404   1.900       .  S
O2400      C2407   1.280       .  A
O2401     Ni2404   1.888       .  S
O2401      C2406   1.277       .  A
O2402     Ni2404   1.893       .  S
O2402      C2405   1.269       .  A
Ni2403    Ni2404   2.387       .  S
O2409     Ni2417   1.996       .  S
O2409      C2419   1.300       .  A
O2410     Ni2417   1.971       .  S
O2410      C2420   1.297       .  A
O2411     Ni2417   1.833       .  S
O2411      C2421   1.257       .  A
O2412     Ni2417   1.862       .  S
O2412      C2422   1.256       .  A
O2413     Ni2418   1.992       .  S
O2413      C2422   1.303       .  A
O2414     Ni2418   2.000       .  S
O2414      C2421   1.301       .  A
O2415     Ni2418   1.837       .  S
O2415      C2420   1.257       .  A
O2416     Ni2418   1.861       .  S
O2416      C2419   1.264       .  A
Ni2417    Ni2418   2.377       .  S
O2423     Ni2431   2.021       .  S
O2423      C2433   1.304       .  A
O2424     Ni2431   1.985       .  S
O2424      C2434   1.295       .  A
O2425     Ni2431   1.952       .  S
O2425      C2435   1.283       .  A
O2426     Ni2431   1.896       .  S
O2426      C2436   1.270       .  A
O2427     Ni2432   1.907       .  S
O2427      C2436   1.283       .  A
O2428     Ni2432   1.940       .  S
O2428      C2435   1.290       .  A
O2429     Ni2432   1.882       .  S
O2429      C2434   1.274       .  A
O2430     Ni2432   1.912       .  S
O2430      C2433   1.276       .  A
Ni2431    Ni2432   2.379       .  S
O2437     Ni2445   1.969       .  S
O2437      C2447   1.286       .  A
O2438      C2448   1.285       .  A
O2439     Ni3453   1.971       .  S
O2439      C2449   1.289       .  A
O2440      C2450   1.290       .  A
O2441      C2450   1.279       .  A
O2442     Ni3454   1.919   1_545  S
O2442      C2449   1.286       .  A
O2443      C2448   1.282       .  A
O2444     Ni2446   1.945       .  S
O2444      C2447   1.286       .  A
Ni2445     O3447   1.971       .  S
Ni2445    Ni2446   2.373       .  S
Ni2446     O3450   1.919       .  S
O2451      C2461   1.273       .  A
O2452     Ni2459   1.846       .  S
O2452      C2462   1.266       .  A
O2453      C2463   1.256       .  A
O2454     Ni3467   1.782   1_545  S
O2454      C2464   1.247       .  A
O2455     Ni3468   1.927   1_545  S
O2455      C2464   1.285       .  A
O2456      C2463   1.286   1_655  A
O2457     Ni2460   1.881       .  S
O2457      C2462   1.272       .  A
O2458      C2461   1.266       .  A
Ni2459     O3462   1.782       .  S
Ni2459    Ni2460   2.397       .  S
Ni2460     O3463   1.927       .  S
O2465     Ni2977   1.864       .  S
O2465      C2475   1.267       .  A
O2466     Ni3481   1.868       .  S
O2466      C2476   1.264       .  A
O2467     Ni2473   1.897       .  S
O2467      C2477   1.284       .  A
O2468     Ni3985   1.911       .  S
O2468      C2478   1.276       .  A
O2469     Ni3482   1.894   1_545  S
O2469      C2478   1.275       .  A
O2470     Ni2978   1.917       .  S
O2470      C2477   1.270       .  A
O2471     Ni3986   1.935   1_545  S
O2471      C2476   1.286       .  A
O2472     Ni2474   1.936       .  S
O2472      C2475   1.288       .  A
Ni2473     O2969   1.864   1_554  S
Ni2473     O3474   1.868       .  S
Ni2473     O3980   1.911   1_554  S
Ni2473    Ni2978   2.385       .  S
Ni2474     O3477   1.894       .  S
Ni2474     O2974   1.917       .  S
Ni2474     O3983   1.935       .  S
Ni2474    Ni2977   2.385       .  S
O2479     Ni2487   1.939       .  S
O2479      C2489   1.278       .  A
O2480      C2490   1.288       .  A
O2481      C2491   1.267       .  A
O2482     Ni2991   1.907   1_554  S
O2482      C2492   1.280       .  A
O2483     Ni2992   1.989   1_554  S
O2483      C2492   1.295       .  A
O2484      C2491   1.284       .  A
O2485      C2490   1.291       .  A
O2486     Ni2488   1.954       .  S
O2486      C2489   1.293       .  A
Ni2487     O2986   1.907       .  S
Ni2487    Ni2488   2.369       .  S
Ni2488     O2987   1.989       .  S
O2493     Ni3509   1.935       .  S
O2493      C2503   1.284   1_565  A
O2494     Ni3005   1.953       .  S
O2494      C2504   1.292       .  A
O2495     Ni2501   1.912       .  S
O2495      C2505   1.279       .  A
O2496     Ni4013   1.927   1_545  S
O2496      C2506   1.285       .  A
O2497     Ni4014   2.019   1_545  S
O2497      C2506   1.299       .  A
O2498     Ni2502   1.996       .  S
O2498      C2505   1.297       .  A
O2499     Ni3006   1.971       .  S
O2499      C2504   1.287       .  A
O2500     Ni3510   1.942   1_545  S
O2500      C2503   1.283       .  A
Ni2501     O3501   1.935       .  S
Ni2501     O2998   1.953   1_554  S
Ni2501     O4008   1.927   1_554  S
Ni2501    Ni2502   2.368       .  S
Ni2502     O4009   2.019   1_554  S
Ni2502     O3003   1.971   1_554  S
Ni2502     O3508   1.942       .  S
O2507      C2517   1.292   1_455  A
O2508     Ni2515   1.983       .  S
O2508      C2518   1.294       .  A
O2509      C2519   1.277       .  A
O2510     Ni3019   1.918   1_554  S
O2510      C2520   1.275       .  A
O2511     Ni3020   1.973   1_554  S
O2511      C2520   1.295       .  A
O2512     Ni2516   1.974       .  S
O2513     Ni2516   1.914       .  S
O2513      C2518   1.272       .  A
O2514     Ni3020   1.894   1_554  S
Ni2515     O3014   1.918       .  S
Ni2515    Ni2516   2.370       .  S
Ni2516     O3015   1.973       .  S
Ni2516     O3018   1.894       .  S
N2521      C2525   1.366       .  A
N2521      C2522   1.386       .  A
N2521      N2542   1.428       .  S
C2522      C2523   1.380       .  A
C2522      C3010   1.551       .  S
C2523      C2524   1.369       .  A
C2523      H2526   1.069       .  S
C2524      C2525   1.366       .  A
C2524      H2527   1.082       .  S
C2525      N2556   1.438       .  S
N2528      C2532   1.335       .  A
N2528      C2529   1.339       .  A
N2528      C2553   1.432       .  S
C2529      C2530   1.375   1_545  A
C2529      C2965   1.430   1_545  S
C2530      C2531   1.373   1_565  A
C2530      H3541   1.074       .  S
C2531      C2532   1.381       .  A
C2531      H2534   1.082   1_545  S
C2532      C2560   1.449       .  S
H2533      C3538   1.074       .  S
N2535      C2539   1.360       .  A
N2535      C2536   1.373       .  A
N2535      C2546   1.461       .  S
C2536      C2537   1.359       .  A
C2536      C2995   1.478       .  S
C2537      C2538   1.365       .  A
C2538      C2539   1.388       .  A
C2538      H2541   1.059       .  S
C2539      N2549   1.460       .  S
N2542      C2546   1.363       .  A
N2542      C2543   1.372       .  A
C2543      C2544   1.380       .  A
C2543      C2937   1.538       .  S
C2544      C2545   1.372       .  A
C2544      H2547   1.076       .  S
C2545      C2546   1.387       .  A
C2545      H2548   1.080       .  S
N2549      C2553   1.353       .  A
N2549      C2550   1.357       .  A
C2550      C2551   1.371       .  A
C2550      C2911   1.436       .  S
C2551      C2552   1.356       .  A
C2551      H2554   1.083       .  S
C2552      C2553   1.390       .  A
C2552      H2555   1.079       .  S
N2556      C2560   1.342       .  A
N2556      C2557   1.353       .  A
C2557      C2558   1.381       .  A
C2557      C2896   1.447       .  S
C2558      C2559   1.359       .  A
C2558      H2561   1.080       .  S
C2559      C2560   1.374       .  A
C2559      H2562   1.080       .  S
N2563      C2567   1.388       .  A
N2563      C2564   1.393       .  A
N2563      N2598   1.463       .  S
C2564      C2565   1.364       .  A
C2564      C2993   1.513       .  S
C2565      C2566   1.349       .  A
C2565      H2568   1.082       .  S
C2566      C2567   1.389       .  A
C2566      H2569   1.074       .  S
C2567      N2584   1.480       .  S
N2570      C2574   1.342       .  A
N2570      C2571   1.359       .  A
N2570      C2595   1.462       .  S
C2571      C2572   1.377       .  A
C2571      C2968   1.416       .  S
C2572      C2573   1.370       .  A
C2572      H2575   1.084       .  S
C2573      C2574   1.350       .  A
C2573      H2576   1.072       .  S
C2574      C2602   1.427       .  S
N2577      C2581   1.345       .  A
N2577      C2578   1.376       .  A
N2577      C2588   1.423       .  S
C2578      C2579   1.377       .  A
C2578      C2982   1.468       .  S
C2579      C2580   1.342       .  A
C2579      H2582   1.082   1_545  S
C2580      C2581   1.382       .  A
C2580      H2583   1.070       .  S
C2581      N2591   1.407       .  S
N2584      C2588   1.377       .  A
N2584      C2585   1.380       .  A
C2585      C2586   1.361       .  A
C2585      C2940   1.445       .  S
C2586      C2587   1.331       .  A
C2586      H2589   1.083       .  S
C2587      C2588   1.367       .  A
C2587      H2590   1.070       .  S
N2591      C2595   1.353       .  A
N2591      C2592   1.353       .  A
C2592      C2593   1.380       .  A
C2592      C2897   1.486       .  S
C2593      C2594   1.374       .  A
C2593      H2596   1.080       .  S
C2594      C2595   1.386       .  A
C2594      H2597   1.081       .  S
N2598      C2602   1.360       .  A
N2598      C2599   1.400       .  A
C2599      C2600   1.395       .  A
C2599      C2883   1.491       .  S
C2600      C2601   1.353       .  A
C2600      H2603   1.078       .  S
C2601      C2602   1.366       .  A
C2601      H2604   1.083       .  S
N2605      C2609   1.373       .  A
N2605      C2606   1.354       .  A
N2605      C2630   1.465       .  S
C2606      C2607   1.371       .  A
C2606      C2979   1.466       .  S
C2607      C2608   1.347       .  A
C2607      H2610   1.071       .  S
C2608      C2609   1.383       .  A
C2608      H2611   1.080       .  S
C2609      N2640   1.436       .  S
N2612      C2616   1.325       .  A
N2612      C2613   1.326       .  A
N2612      C2644   1.410       .  S
C2613      C2614   1.381       .  A
C2613      C2966   1.405       .  S
C2614      C2615   1.361       .  A
C2614      H2617   1.078       .  S
C2615      C2616   1.377       .  A
C2615      H2618   1.077       .  S
C2616      C2637   1.444       .  S
N2619      C2623   1.363       .  A
N2619      C2620   1.376       .  A
N2619      N2626   1.416       .  S
C2620      C2621   1.374       .  A
C2620      C3022   1.511       .  S
C2621      C2622   1.372       .  A
C2621      H2624   1.081       .  S
C2622      C2623   1.379       .  A
C2622      H2625   1.070       .  S
C2623      N2633   1.448       .  S
N2626      C2630   1.365       .  A
N2626      C2627   1.367       .  A
C2627      C2628   1.373       .  A
C2627      C2938   1.500       .  S
C2628      C2629   1.351       .  A
C2628      H2631   1.081       .  S
C2629      C2630   1.398       .  A
C2629      H2632   1.072       .  S
N2633      C2637   1.340       .  A
N2633      C2634   1.348       .  A
C2634      C2635   1.376       .  A
C2634      C2881   1.449       .  S
C2635      C2636   1.363       .  A
C2635      H2638   1.078       .  S
C2636      C2637   1.368       .  A
C2636      H2639   1.081       .  S
N2640      C2644   1.344       .  A
N2640      C2641   1.346       .  A
C2641      C2642   1.382       .  A
C2641      C2924   1.464       .  S
C2642      C2643   1.362       .  A
C2642      H2645   1.082       .  S
C2643      C2644   1.385       .  A
C2643      H2646   1.081       .  S
N2647      C2651   1.334       .  A
N2647      C2648   1.348       .  A
N2647      C2686   1.439       .  S
C2648      C2649   1.380       .  A
C2648      C2967   1.419   1_655  S
C2649      C2650   1.362       .  A
C2650      C2651   1.384       .  A
C2650      H2653   1.082       .  S
C2651      C2672   1.434       .  S
N2654      C2658   1.387       .  A
N2654      C2655   1.389       .  A
N2654      N2675   1.459       .  S
C2655      C2656   1.370       .  A
C2655      C3008   1.534       .  S
C2656      C2657   1.368       .  A
C2656      H2659   1.075       .  S
C2657      C2658   1.380       .  A
C2657      H2660   1.075       .  S
C2658      N2682   1.477       .  S
N2661      C2665   1.391       .  A
N2661      C2662   1.394       .  A
N2661      C2679   1.483       .  S
C2662      C2663   1.382       .  A
C2662      C3023   1.523   1_655  S
C2663      C2664   1.374       .  A
C2664      C2665   1.381       .  A
C2664      H2667   1.080       .  S
C2665      N2668   1.465       .  S
N2668      C2672   1.336       .  A
N2668      C2669   1.364       .  A
C2669      C2670   1.393       .  A
C2669      C2910   1.494       .  S
C2670      C2671   1.362       .  A
C2670      H2673   1.084       .  S
C2671      C2672   1.365       .  A
C2671      H2674   1.070       .  S
N2675      C2679   1.385       .  A
N2675      C2676   1.380       .  A
C2676      C2677   1.363       .  A
C2676      C2939   1.510       .  S
C2677      C2678   1.362       .  A
C2677      H2680   1.069       .  S
C2678      C2679   1.391       .  A
C2678      H2681   1.078       .  S
N2682      C2686   1.354       .  A
N2682      C2683   1.392       .  A
C2683      C2684   1.376       .  A
C2683      C2926   1.495       .  S
C2684      C2685   1.368       .  A
C2684      H2687   1.082       .  S
C2685      C2686   1.387       .  A
C2685      H2688   1.078       .  S
N2689      C2693   1.367       .  A
N2689      C2690   1.355       .  A
N2689      C2714   1.412       .  S
C2690      C2691   1.383       .  A
C2690      C3024   1.521       .  S
C2691      C2692   1.391       .  A
C2691      H2694   1.082       .  S
C2692      C2693   1.389       .  A
C2692      H2695   1.074       .  S
C2693      C2728   1.514       .  S
N2696      C2700   1.371       .  A
N2696      C2697   1.395       .  A
N2696      N2724   1.438       .  S
C2697      C2698   1.382       .  A
C2697      C2951   1.513       .  S
C2698      C2699   1.365       .  A
C2698      H2701   1.083       .  S
C2699      C2700   1.377       .  A
C2699      H2702   1.074       .  S
C2700      N2717   1.443       .  S
N2703      C2707   1.360       .  A
N2703      C2704   1.376       .  A
N2703      N2710   1.431       .  S
C2704      C2705   1.384       .  A
C2704      C2981   1.464       .  S
C2705      C2706   1.343       .  A
C2705      H2708   1.083       .  S
C2706      C2707   1.379       .  A
C2706      H2709   1.083       .  S
C2707      C2721   1.458       .  S
N2710      C2714   1.356       .  A
N2710      C2711   1.368       .  A
C2711      C2712   1.377       .  A
C2711      C2867   1.446       .  S
C2712      C2713   1.344       .  A
C2712      H2715   1.082       .  S
C2713      C2714   1.378       .  A
C2713      H2716   1.079       .  S
N2717      C2721   1.357       .  A
N2717      C2718   1.358       .  A
C2718      C2719   1.376       .  A
C2718      C2925   1.493       .  S
C2719      C2720   1.360       .  A
C2719      H2722   1.083       .  S
C2720      C2721   1.379       .  A
C2720      H2723   1.068       .  S
N2724      C2728   1.380       .  A
N2724      C2725   1.407       .  A
C2725      C2726   1.370       .  A
C2725      C2884   1.523       .  S
C2726      C2727   1.355       .  A
C2726      H2729   1.077       .  S
C2727      C2728   1.376       .  A
C2727      H2730   1.075       .  S
N2731      C2735   1.401       .  A
N2731      C2732   1.367       .  A
N2731      N2752   1.435       .  S
C2732      C2733   1.371       .  A
C2732      C3009   1.519       .  S
C2733      C2734   1.364       .  A
C2733      H2736   1.071       .  S
C2734      C2735   1.386       .  A
C2734      H2737   1.076       .  S
C2735      N2766   1.503       .  S
N2738      C2742   1.368       .  A
N2738      C2739   1.381       .  A
N2738      C2770   1.466       .  S
C2739      C2740   1.383       .  A
C2739      C2954   1.503       .  S
C2740      C2741   1.367       .  A
C2741      C2742   1.380       .  A
C2742      N2759   1.441       .  S
N2745      C2749   1.352       .  A
N2745      C2746   1.359       .  A
N2745      C2756   1.412       .  S
C2746      C2747   1.382   1_655  A
C2746      C3021   1.485       .  S
C2747      C2748   1.371   1_455  A
C2748      C2749   1.367       .  A
C2748      H2751   1.076   1_655  S
C2749      C2763   1.504       .  S
N2752      C2756   1.361       .  A
N2752      C2753   1.387       .  A
C2753      C2754   1.383       .  A
C2753      C2869   1.497       .  S
C2754      C2755   1.361       .  A
C2754      H2757   1.084       .  S
C2755      C2756   1.374       .  A
C2755      H2758   1.081       .  S
N2759      C2763   1.356       .  A
N2759      C2760   1.372       .  A
C2760      C2761   1.381       .  A
C2760      C2912   1.486       .  S
C2761      C2762   1.371       .  A
C2761      H2764   1.083       .  S
C2762      C2763   1.381       .  A
C2762      H2765   1.073       .  S
N2766      C2770   1.370       .  A
N2766      C2767   1.369       .  A
C2767      C2768   1.384       .  A
C2767      C2923   1.498       .  S
C2768      C2769   1.357       .  A
C2768      H2771   1.083       .  S
C2769      C2770   1.380       .  A
C2769      H2772   1.076       .  S
N2773      C2777   1.382       .  A
N2773      C2774   1.391       .  A
N2773      N2794   1.463       .  S
C2774      C2775   1.390       .  A
C2774      C2994   1.537       .  S
C2775      C2776   1.356       .  A
C2775      H2778   1.083       .  S
C2776      C2777   1.379       .  A
C2776      H2779   1.083       .  S
C2777      C2812   1.477       .  S
N2780      C2784   1.367       .  A
N2780      C2781   1.376       .  A
N2780      N2808   1.433       .  S
C2781      C2782   1.384       .  A
C2781      C2952   1.485       .  S
C2782      C2783   1.360       .  A
C2782      H3793   1.083       .  S
C2783      C2784   1.375       .  A
C2783      H2786   1.080       .  S
C2784      N2801   1.428       .  S
H2785      C3790   1.083       .  S
N2787      C2791   1.367       .  A
N2787      C2788   1.365       .  A
N2787      C2798   1.438       .  S
C2788      C2789   1.379       .  A
C2788      C3007   1.494       .  S
C2789      C2790   1.378       .  A
C2789      H3800   1.083   1_545  S
C2790      C2791   1.385       .  A
C2790      H2793   1.079       .  S
C2791      C2805   1.506       .  S
H2792      C3797   1.083       .  S
N2794      C2798   1.375       .  A
N2794      C2795   1.400       .  A
C2795      C2796   1.392       .  A
C2795      C2868   1.523       .  S
C2796      C2797   1.349       .  A
C2796      H2799   1.085       .  S
C2797      C2798   1.368       .  A
C2797      H2800   1.081       .  S
N2801      C2805   1.353       .  A
N2801      C2802   1.362       .  A
C2802      C2803   1.381       .  A
C2802      C2898   1.500       .  S
C2803      C2804   1.391       .  A
C2803      H2806   1.080       .  S
C2804      C2805   1.369       .  A
C2804      H2807   1.077       .  S
N2808      C2812   1.371       .  A
N2808      C2809   1.374       .  A
C2809      C2810   1.385       .  A
C2809      C2909   1.475       .  S
C2810      C2811   1.368       .  A
C2810      H2813   1.083       .  S
C2811      C2812   1.378       .  A
C2811      H2814   1.082       .  S
N2815      C2819   1.387       .  A
N2815      C2816   1.407       .  A
N2815      N2850   1.467       .  S
C2816      C2817   1.381       .  A
C2816      C2996   1.506       .  S
C2817      C2818   1.332       .  A
C2817      H2820   1.085       .  S
C2818      C2819   1.370       .  A
C2818      H2821   1.078       .  S
C2819      C2847   1.467       .  S
N2822      C2826   1.352       .  A
N2822      C2823   1.366       .  A
N2822      C2854   1.460       .  S
C2823      C2824   1.378       .  A
C2823      C2980   1.454       .  S
C2824      C2825   1.371       .  A
C2824      H2827   1.081       .  S
C2825      C2826   1.381       .  A
C2825      H2828   1.082       .  S
C2826      C2840   1.471       .  S
N2829      C2833   1.343       .  A
N2829      C2830   1.374       .  A
N2829      N2843   1.436       .  S
C2830      C2831   1.378       .  A
C2830      C2953   1.530       .  S
C2831      C2832   1.367       .  A
C2831      H2834   1.076       .  S
C2832      C2833   1.361       .  A
C2832      H2835   1.074       .  S
C2833      N2836   1.425       .  S
N2836      C2840   1.347       .  A
N2836      C2837   1.340       .  A
C2837      C2838   1.374       .  A
C2837      C2895   1.455       .  S
C2838      C2839   1.365       .  A
C2838      H2841   1.061       .  S
C2839      C2840   1.373       .  A
C2839      H2842   1.081       .  S
N2843      C2847   1.360       .  A
N2843      C2844   1.384       .  A
C2844      C2845   1.387       .  A
C2844      C2882   1.506       .  S
C2845      C2846   1.380       .  A
C2845      H2848   1.083       .  S
C2846      C2847   1.376       .  A
C2846      H2849   1.082       .  S
N2850      C2854   1.369       .  A
N2850      C2851   1.409       .  A
C2851      C2852   1.387       .  A
C2851      C2870   1.588       .  S
C2852      C2853   1.365       .  A
C2852      H2855   1.082       .  S
C2853      C2854   1.378       .  A
C2853      H2856   1.068       .  S
O2857     Ni2865   1.893       .  S
O2857      C2867   1.276       .  A
O2858     Ni2865   1.948       .  S
O2858      C2868   1.281       .  A
O2859     Ni2865   1.978       .  S
O2859      C2869   1.291       .  A
O2860     Ni2865   2.024       .  S
O2860      C2870   1.301       .  A
O2861     Ni2866   1.973       .  S
O2861      C2870   1.296       .  A
O2862     Ni2866   1.918       .  S
O2862      C2869   1.281       .  A
O2863     Ni2866   1.956       .  S
O2863      C2868   1.293       .  A
O2864     Ni2866   1.910       .  S
O2864      C2867   1.276       .  A
Ni2865    Ni2866   2.369       .  S
O2871     Ni2879   1.899       .  S
O2871      C2881   1.286       .  A
O2872     Ni2879   1.985       .  S
O2872      C2882   1.301       .  A
O2873     Ni2879   1.884       .  S
O2873      C2883   1.274       .  A
O2874     Ni2879   1.924       .  S
O2874      C2884   1.272       .  A
O2875     Ni2880   2.016       .  S
O2875      C2884   1.309       .  A
O2876     Ni2880   1.964       .  S
O2876      C2883   1.300       .  A
O2877     Ni2880   1.906       .  S
O2877      C2882   1.270       .  A
O2878     Ni2880   1.852       .  S
O2878      C2881   1.262       .  A
Ni2879    Ni2880   2.384       .  S
O2885     Ni2893   1.915       .  S
O2885      C2895   1.285       .  A
O2886     Ni2893   1.909       .  S
O2886      C2896   1.283       .  A
O2887     Ni2893   1.894       .  S
O2887      C2897   1.271       .  A
O2888     Ni2893   1.898       .  S
O2888      C2898   1.273       .  A
O2889     Ni2894   1.974       .  S
O2889      C2898   1.295       .  A
O2890     Ni2894   1.970       .  S
O2890      C2897   1.295       .  A
O2891     Ni2894   1.901       .  S
O2891      C2896   1.272       .  A
O2892     Ni2894   1.897       .  S
O2892      C2895   1.271       .  A
Ni2893    Ni2894   2.389       .  S
O2899     Ni2907   1.954       .  S
O2899      C2909   1.294       .  A
O2900     Ni2907   1.958       .  S
O2900      C2910   1.290       .  A
O2901     Ni2907   1.886       .  S
O2901      C2911   1.270       .  A
O2902     Ni2907   1.904       .  S
O2902      C2912   1.271       .  A
O2903     Ni2908   1.945       .  S
O2903      C2912   1.290       .  A
O2904     Ni2908   1.900       .  S
O2904      C2911   1.280       .  A
O2905     Ni2908   1.888       .  S
O2905      C2910   1.277       .  A
O2906     Ni2908   1.893       .  S
O2906      C2909   1.269       .  A
Ni2907    Ni2908   2.387       .  S
O2913     Ni2921   1.996       .  S
O2913      C2923   1.300       .  A
O2914     Ni2921   1.971       .  S
O2914      C2924   1.297       .  A
O2915     Ni2921   1.833       .  S
O2915      C2925   1.257       .  A
O2916     Ni2921   1.862       .  S
O2916      C2926   1.256       .  A
O2917     Ni2922   1.992       .  S
O2917      C2926   1.303       .  A
O2918     Ni2922   2.000       .  S
O2918      C2925   1.301       .  A
O2919     Ni2922   1.837       .  S
O2919      C2924   1.257       .  A
O2920     Ni2922   1.861       .  S
O2920      C2923   1.265       .  A
Ni2921    Ni2922   2.377       .  S
O2927     Ni2935   2.021       .  S
O2927      C2937   1.304       .  A
O2928     Ni2935   1.985       .  S
O2928      C2938   1.295       .  A
O2929     Ni2935   1.952       .  S
O2929      C2939   1.283       .  A
O2930     Ni2935   1.896       .  S
O2930      C2940   1.270       .  A
O2931     Ni2936   1.907       .  S
O2931      C2940   1.283       .  A
O2932     Ni2936   1.940       .  S
O2932      C2939   1.290       .  A
O2933     Ni2936   1.882       .  S
O2933      C2938   1.274       .  A
O2934     Ni2936   1.912       .  S
O2934      C2937   1.276       .  A
Ni2935    Ni2936   2.379       .  S
O2941     Ni2949   1.969       .  S
O2941      C2951   1.286       .  A
O2942      C2952   1.285       .  A
O2943     Ni3957   1.971       .  S
O2943      C2953   1.289       .  A
O2944      C2954   1.290       .  A
O2945      C2954   1.279       .  A
O2946     Ni3958   1.919   1_545  S
O2946      C2953   1.286       .  A
O2947      C2952   1.282       .  A
O2948     Ni2950   1.945       .  S
O2948      C2951   1.286       .  A
Ni2949     O3951   1.971       .  S
Ni2949    Ni2950   2.373       .  S
Ni2950     O3954   1.919       .  S
O2955      C2965   1.273       .  A
O2956     Ni2963   1.846       .  S
O2956      C2966   1.266       .  A
O2957      C2967   1.256       .  A
O2958     Ni3971   1.782   1_545  S
O2958      C2968   1.247       .  A
O2959     Ni3972   1.927   1_545  S
O2959      C2968   1.285       .  A
O2960      C2967   1.286   1_655  A
O2961     Ni2964   1.881       .  S
O2961      C2966   1.272       .  A
O2962      C2965   1.266       .  A
Ni2963     O3966   1.782       .  S
Ni2963    Ni2964   2.397       .  S
Ni2964     O3967   1.927       .  S
O2969      C2979   1.267       .  A
O2970     Ni3985   1.868       .  S
O2970      C2980   1.264       .  A
O2971     Ni2977   1.897       .  S
O2971      C2981   1.284       .  A
O2972     Ni3481   1.911   1_556  S
O2972      C2982   1.276       .  A
O2973     Ni3986   1.894   1_546  S
O2973      C2982   1.275       .  A
O2974      C2981   1.270       .  A
O2975     Ni3482   1.935   1_545  S
O2975      C2980   1.286       .  A
O2976     Ni2978   1.936   1_556  S
O2976      C2979   1.288       .  A
Ni2977     O3978   1.868       .  S
Ni2977     O3476   1.911       .  S
Ni2978     O3981   1.894   1_554  S
Ni2978     O3479   1.935       .  S
O2983     Ni2991   1.939       .  S
O2983      C2993   1.278       .  A
O2984      C2994   1.288       .  A
O2985      C2995   1.267       .  A
O2986      C2996   1.280       .  A
O2987      C2996   1.295       .  A
O2988      C2995   1.284       .  A
O2989      C2994   1.291       .  A
O2990     Ni2992   1.954       .  S
O2990      C2993   1.293       .  A
Ni2991    Ni2992   2.369       .  S
O2997     Ni4013   1.935       .  S
O2997      C3007   1.284   1_565  A
O2998      C3008   1.292       .  A
O2999     Ni3005   1.912       .  S
O2999      C3009   1.279       .  A
O3000     Ni3509   1.927   1_546  S
O3000      C3010   1.285       .  A
O3001     Ni3510   2.019   1_546  S
O3001      C3010   1.299       .  A
O3002     Ni3006   1.996       .  S
O3002      C3009   1.297       .  A
O3003      C3008   1.287       .  A
O3004     Ni4014   1.942   1_545  S
O3004      C3007   1.283       .  A
Ni3005     O4005   1.935       .  S
Ni3005     O3504   1.927       .  S
Ni3005    Ni3006   2.368       .  S
Ni3006     O3505   2.019       .  S
Ni3006     O4012   1.942       .  S
O3011      C3021   1.292   1_455  A
O3012     Ni3019   1.983       .  S
O3012      C3022   1.294       .  A
O3013      C3023   1.277       .  A
O3014      C3024   1.275       .  A
O3015      C3024   1.295       .  A
O3016     Ni3020   1.974       .  S
O3017     Ni3020   1.914       .  S
O3017      C3022   1.272       .  A
Ni3019    Ni3020   2.370       .  S
N3025      C3029   1.366       .  A
N3025      C3026   1.386       .  A
N3025      N3046   1.428       .  S
C3026      C3027   1.380       .  A
C3026      C3514   1.551       .  S
C3027      C3028   1.369       .  A
C3027      H3030   1.069       .  S
C3028      C3029   1.366       .  A
C3028      H3031   1.082       .  S
C3029      N3060   1.438       .  S
N3032      C3036   1.335       .  A
N3032      C3033   1.339       .  A
N3032      C3057   1.432       .  S
C3033      C3034   1.375       .  A
C3033      C3469   1.430       .  S
C3034      C3035   1.373       .  A
C3035      C3036   1.381       .  A
C3035      H3038   1.082       .  S
C3036      C3064   1.449       .  S
N3039      C3043   1.360       .  A
N3039      C3040   1.373       .  A
N3039      C3050   1.461       .  S
C3040      C3041   1.359       .  A
C3040      C3499   1.478       .  S
C3041      C3042   1.365       .  A
C3042      C3043   1.388       .  A
C3042      H3045   1.059       .  S
C3043      N3053   1.460       .  S
N3046      C3050   1.363       .  A
N3046      C3047   1.372       .  A
C3047      C3048   1.380       .  A
C3047      C3441   1.538       .  S
C3048      C3049   1.372       .  A
C3048      H3051   1.076       .  S
C3049      C3050   1.387       .  A
C3049      H3052   1.080       .  S
N3053      C3057   1.353       .  A
N3053      C3054   1.357       .  A
C3054      C3055   1.371       .  A
C3054      C3415   1.436       .  S
C3055      C3056   1.356       .  A
C3055      H3058   1.084       .  S
C3056      C3057   1.390       .  A
C3056      H3059   1.079       .  S
N3060      C3064   1.342       .  A
N3060      C3061   1.353       .  A
C3061      C3062   1.381       .  A
C3061      C3400   1.447       .  S
C3062      C3063   1.359       .  A
C3062      H3065   1.080       .  S
C3063      C3064   1.374       .  A
C3063      H3066   1.080       .  S
N3067      C3071   1.388       .  A
N3067      C3068   1.393       .  A
N3067      N3102   1.463       .  S
C3068      C3069   1.364       .  A
C3068      C3497   1.513       .  S
C3069      C3070   1.349       .  A
C3069      H3072   1.082       .  S
C3070      C3071   1.389       .  A
C3070      H3073   1.074       .  S
C3071      N3088   1.480       .  S
N3074      C3078   1.342       .  A
N3074      C3075   1.359       .  A
N3074      C3099   1.462       .  S
C3075      C3076   1.377       .  A
C3075      C3472   1.416       .  S
C3076      C3077   1.370       .  A
C3076      H3079   1.084       .  S
C3077      C3078   1.350       .  A
C3077      H3080   1.072       .  S
C3078      C3106   1.427       .  S
N3081      C3085   1.345       .  A
N3081      C3082   1.376       .  A
N3081      C3092   1.423       .  S
C3082      C3083   1.377       .  A
C3082      C3486   1.468       .  S
C3083      C3084   1.342       .  A
C3083      H3086   1.082       .  S
C3084      C3085   1.382       .  A
C3084      H3087   1.070       .  S
C3085      N3095   1.407       .  S
N3088      C3092   1.377       .  A
N3088      C3089   1.380       .  A
C3089      C3090   1.361       .  A
C3089      C3444   1.445       .  S
C3090      C3091   1.331       .  A
C3090      H3093   1.083       .  S
C3091      C3092   1.367       .  A
C3091      H3094   1.070       .  S
N3095      C3099   1.353       .  A
N3095      C3096   1.353       .  A
C3096      C3097   1.380       .  A
C3096      C3401   1.486       .  S
C3097      C3098   1.374       .  A
C3097      H3100   1.080       .  S
C3098      C3099   1.386       .  A
C3098      H3101   1.081       .  S
N3102      C3106   1.360       .  A
N3102      C3103   1.400       .  A
C3103      C3104   1.395       .  A
C3103      C3387   1.491       .  S
C3104      C3105   1.353       .  A
C3104      H3107   1.078       .  S
C3105      C3106   1.366       .  A
C3105      H3108   1.083       .  S
N3109      C3113   1.373       .  A
N3109      C3110   1.354       .  A
N3109      C3134   1.465       .  S
C3110      C3111   1.371       .  A
C3110      C3483   1.466       .  S
C3111      C3112   1.347       .  A
C3111      H3114   1.071       .  S
C3112      C3113   1.383       .  A
C3112      H3115   1.080       .  S
C3113      N3144   1.436       .  S
N3116      C3120   1.325       .  A
N3116      C3117   1.326       .  A
N3116      C3148   1.410       .  S
C3117      C3118   1.381       .  A
C3117      C3470   1.405       .  S
C3118      C3119   1.361       .  A
C3118      H3121   1.078       .  S
C3119      C3120   1.377       .  A
C3119      H3122   1.077       .  S
C3120      C3141   1.444       .  S
N3123      C3127   1.363       .  A
N3123      C3124   1.376       .  A
N3123      N3130   1.416       .  S
C3124      C3125   1.374       .  A
C3124      C3526   1.511       .  S
C3125      C3126   1.372       .  A
C3125      H3128   1.081       .  S
C3126      C3127   1.379       .  A
C3126      H3129   1.070       .  S
C3127      N3137   1.448       .  S
N3130      C3134   1.365       .  A
N3130      C3131   1.367       .  A
C3131      C3132   1.373       .  A
C3131      C3442   1.500       .  S
C3132      C3133   1.351       .  A
C3132      H3135   1.081       .  S
C3133      C3134   1.398       .  A
C3133      H3136   1.072       .  S
N3137      C3141   1.340       .  A
N3137      C3138   1.348       .  A
C3138      C3139   1.376       .  A
C3138      C3385   1.449       .  S
C3139      C3140   1.363       .  A
C3139      H3142   1.078       .  S
C3140      C3141   1.368       .  A
C3140      H3143   1.081       .  S
N3144      C3148   1.344       .  A
N3144      C3145   1.346       .  A
C3145      C3146   1.382       .  A
C3145      C3428   1.464       .  S
C3146      C3147   1.362       .  A
C3146      H3149   1.082       .  S
C3147      C3148   1.385       .  A
C3147      H3150   1.081       .  S
N3151      C3155   1.334       .  A
N3151      C3152   1.348       .  A
N3151      C3190   1.439       .  S
C3152      C3153   1.380       .  A
C3152      C3471   1.419   1_655  S
C3153      C3154   1.362       .  A
C3154      C3155   1.384       .  A
C3154      H3157   1.082       .  S
C3155      C3176   1.434       .  S
N3158      C3162   1.387       .  A
N3158      C3159   1.389       .  A
N3158      N3179   1.459       .  S
C3159      C3160   1.370       .  A
C3159      C3512   1.534       .  S
C3160      C3161   1.368       .  A
C3160      H3163   1.075       .  S
C3161      C3162   1.380       .  A
C3161      H3164   1.075       .  S
C3162      N3186   1.477       .  S
N3165      C3169   1.391       .  A
N3165      C3166   1.394       .  A
N3165      C3183   1.483       .  S
C3166      C3167   1.382       .  A
C3166      C3527   1.523   1_655  S
C3167      C3168   1.374       .  A
C3168      C3169   1.381       .  A
C3168      H3171   1.080       .  S
C3169      N3172   1.465       .  S
N3172      C3176   1.336       .  A
N3172      C3173   1.364       .  A
C3173      C3174   1.393       .  A
C3173      C3414   1.494       .  S
C3174      C3175   1.362       .  A
C3174      H3177   1.084       .  S
C3175      C3176   1.365       .  A
C3175      H3178   1.070       .  S
N3179      C3183   1.385       .  A
N3179      C3180   1.380       .  A
C3180      C3181   1.363       .  A
C3180      C3443   1.510       .  S
C3181      C3182   1.362       .  A
C3181      H3184   1.069       .  S
C3182      C3183   1.391       .  A
C3182      H3185   1.078       .  S
N3186      C3190   1.354       .  A
N3186      C3187   1.392       .  A
C3187      C3188   1.376       .  A
C3187      C3430   1.495       .  S
C3188      C3189   1.368       .  A
C3188      H3191   1.082       .  S
C3189      C3190   1.387       .  A
C3189      H3192   1.078       .  S
N3193      C3197   1.367       .  A
N3193      C3194   1.355       .  A
N3193      C3218   1.412       .  S
C3194      C3195   1.383       .  A
C3194      C3528   1.521       .  S
C3195      C3196   1.391       .  A
C3195      H3198   1.082       .  S
C3196      C3197   1.389       .  A
C3196      H3199   1.074       .  S
C3197      C3232   1.514       .  S
N3200      C3204   1.371       .  A
N3200      C3201   1.395       .  A
N3200      N3228   1.438       .  S
C3201      C3202   1.382       .  A
C3201      C3455   1.513       .  S
C3202      C3203   1.365       .  A
C3202      H3205   1.083       .  S
C3203      C3204   1.377       .  A
C3203      H3206   1.074       .  S
C3204      N3221   1.443       .  S
N3207      C3211   1.360       .  A
N3207      C3208   1.376       .  A
N3207      N3214   1.431       .  S
C3208      C3209   1.384       .  A
C3208      C3485   1.464       .  S
C3209      C3210   1.343       .  A
C3209      H3212   1.083       .  S
C3210      C3211   1.379       .  A
C3210      H3213   1.083       .  S
C3211      C3225   1.458       .  S
N3214      C3218   1.356       .  A
N3214      C3215   1.368       .  A
C3215      C3216   1.377       .  A
C3215      C3371   1.446       .  S
C3216      C3217   1.344       .  A
C3216      H3219   1.082       .  S
C3217      C3218   1.377       .  A
C3217      H3220   1.079       .  S
N3221      C3225   1.357       .  A
N3221      C3222   1.358       .  A
C3222      C3223   1.376       .  A
C3222      C3429   1.493       .  S
C3223      C3224   1.360       .  A
C3223      H3226   1.083       .  S
C3224      C3225   1.379       .  A
C3224      H3227   1.068       .  S
N3228      C3232   1.380       .  A
N3228      C3229   1.407       .  A
C3229      C3230   1.370       .  A
C3229      C3388   1.523       .  S
C3230      C3231   1.355       .  A
C3230      H3233   1.077       .  S
C3231      C3232   1.376       .  A
C3231      H3234   1.075       .  S
N3235      C3239   1.401       .  A
N3235      C3236   1.367       .  A
N3235      N3256   1.435       .  S
C3236      C3237   1.371       .  A
C3236      C3513   1.519       .  S
C3237      C3238   1.364       .  A
C3237      H3240   1.071       .  S
C3238      C3239   1.386       .  A
C3238      H3241   1.076       .  S
C3239      N3270   1.503       .  S
N3242      C3246   1.368       .  A
N3242      C3243   1.381       .  A
N3242      C3274   1.466       .  S
C3243      C3244   1.383       .  A
C3243      C3458   1.503       .  S
C3244      C3245   1.367       .  A
C3245      C3246   1.380       .  A
C3246      N3263   1.441       .  S
N3249      C3253   1.352       .  A
N3249      C3250   1.359       .  A
N3249      C3260   1.412       .  S
C3250      C3251   1.382   1_655  A
C3250      C3525   1.485       .  S
C3251      C3252   1.371   1_455  A
C3252      C3253   1.367       .  A
C3252      H3255   1.076   1_655  S
C3253      C3267   1.504       .  S
N3256      C3260   1.361       .  A
N3256      C3257   1.387       .  A
C3257      C3258   1.383       .  A
C3257      C3373   1.497       .  S
C3258      C3259   1.361       .  A
C3258      H3261   1.084       .  S
C3259      C3260   1.374       .  A
C3259      H3262   1.081       .  S
N3263      C3267   1.356       .  A
N3263      C3264   1.372       .  A
C3264      C3265   1.381       .  A
C3264      C3416   1.486       .  S
C3265      C3266   1.371       .  A
C3265      H3268   1.083       .  S
C3266      C3267   1.381       .  A
C3266      H3269   1.073       .  S
N3270      C3274   1.370       .  A
N3270      C3271   1.369       .  A
C3271      C3272   1.384       .  A
C3271      C3427   1.498       .  S
C3272      C3273   1.357       .  A
C3272      H3275   1.083       .  S
C3273      C3274   1.380       .  A
C3273      H3276   1.076       .  S
N3277      C3281   1.382       .  A
N3277      C3278   1.391       .  A
N3277      N3298   1.463       .  S
C3278      C3279   1.390       .  A
C3278      C3498   1.537       .  S
C3279      C3280   1.356       .  A
C3279      H3282   1.083       .  S
C3280      C3281   1.379       .  A
C3280      H3283   1.083       .  S
C3281      C3316   1.477       .  S
N3284      C3288   1.367       .  A
N3284      C3285   1.376       .  A
N3284      N3312   1.433       .  S
C3285      C3286   1.384       .  A
C3285      C3456   1.485       .  S
C3286      C3287   1.360       .  A
C3287      C3288   1.375       .  A
C3287      H3290   1.080       .  S
C3288      N3305   1.428       .  S
N3291      C3295   1.367       .  A
N3291      C3292   1.365       .  A
N3291      C3302   1.438       .  S
C3292      C3293   1.379       .  A
C3292      C3511   1.494       .  S
C3293      C3294   1.378       .  A
C3294      C3295   1.385       .  A
C3294      H3297   1.079       .  S
C3295      C3309   1.506       .  S
N3298      C3302   1.375       .  A
N3298      C3299   1.400       .  A
C3299      C3300   1.392       .  A
C3299      C3372   1.523       .  S
C3300      C3301   1.349       .  A
C3300      H3303   1.085       .  S
C3301      C3302   1.368       .  A
C3301      H3304   1.081       .  S
N3305      C3309   1.353       .  A
N3305      C3306   1.362       .  A
C3306      C3307   1.381       .  A
C3306      C3402   1.500       .  S
C3307      C3308   1.391       .  A
C3307      H3310   1.080       .  S
C3308      C3309   1.369       .  A
C3308      H3311   1.077       .  S
N3312      C3316   1.371       .  A
N3312      C3313   1.374       .  A
C3313      C3314   1.385       .  A
C3313      C3413   1.475       .  S
C3314      C3315   1.368       .  A
C3314      H3317   1.083       .  S
C3315      C3316   1.378       .  A
C3315      H3318   1.082       .  S
N3319      C3323   1.387       .  A
N3319      C3320   1.407       .  A
N3319      N3354   1.467       .  S
C3320      C3321   1.381       .  A
C3320      C3500   1.506       .  S
C3321      C3322   1.332       .  A
C3321      H3324   1.085       .  S
C3322      C3323   1.370       .  A
C3322      H3325   1.078       .  S
C3323      C3351   1.467       .  S
N3326      C3330   1.352       .  A
N3326      C3327   1.366       .  A
N3326      C3358   1.460       .  S
C3327      C3328   1.378       .  A
C3327      C3484   1.454       .  S
C3328      C3329   1.371       .  A
C3328      H3331   1.081       .  S
C3329      C3330   1.381       .  A
C3329      H3332   1.082       .  S
C3330      C3344   1.471       .  S
N3333      C3337   1.343       .  A
N3333      C3334   1.374       .  A
N3333      N3347   1.436       .  S
C3334      C3335   1.378       .  A
C3334      C3457   1.530       .  S
C3335      C3336   1.367       .  A
C3335      H3338   1.076       .  S
C3336      C3337   1.361       .  A
C3336      H3339   1.074       .  S
C3337      N3340   1.425       .  S
N3340      C3344   1.347       .  A
N3340      C3341   1.340       .  A
C3341      C3342   1.374       .  A
C3341      C3399   1.455       .  S
C3342      C3343   1.365       .  A
C3342      H3345   1.061       .  S
C3343      C3344   1.373       .  A
C3343      H3346   1.081       .  S
N3347      C3351   1.360       .  A
N3347      C3348   1.384       .  A
C3348      C3349   1.387       .  A
C3348      C3386   1.506       .  S
C3349      C3350   1.380       .  A
C3349      H3352   1.083       .  S
C3350      C3351   1.376       .  A
C3350      H3353   1.082       .  S
N3354      C3358   1.369       .  A
N3354      C3355   1.409       .  A
C3355      C3356   1.387       .  A
C3355      C3374   1.588       .  S
C3356      C3357   1.365       .  A
C3356      H3359   1.082       .  S
C3357      C3358   1.378       .  A
C3357      H3360   1.068       .  S
O3361     Ni3369   1.893       .  S
O3361      C3371   1.276       .  A
O3362     Ni3369   1.948       .  S
O3362      C3372   1.281       .  A
O3363     Ni3369   1.978       .  S
O3363      C3373   1.291       .  A
O3364     Ni3369   2.024       .  S
O3364      C3374   1.301       .  A
O3365     Ni3370   1.973       .  S
O3365      C3374   1.296       .  A
O3366     Ni3370   1.918       .  S
O3366      C3373   1.281       .  A
O3367     Ni3370   1.956       .  S
O3367      C3372   1.293       .  A
O3368     Ni3370   1.910       .  S
O3368      C3371   1.276       .  A
Ni3369    Ni3370   2.369       .  S
O3375     Ni3383   1.899       .  S
O3375      C3385   1.286       .  A
O3376     Ni3383   1.985       .  S
O3376      C3386   1.301       .  A
O3377     Ni3383   1.884       .  S
O3377      C3387   1.274       .  A
O3378     Ni3383   1.924       .  S
O3378      C3388   1.272       .  A
O3379     Ni3384   2.016       .  S
O3379      C3388   1.309       .  A
O3380     Ni3384   1.964       .  S
O3380      C3387   1.300       .  A
O3381     Ni3384   1.906       .  S
O3381      C3386   1.270       .  A
O3382     Ni3384   1.852       .  S
O3382      C3385   1.262       .  A
Ni3383    Ni3384   2.384       .  S
O3389     Ni3397   1.915       .  S
O3389      C3399   1.285       .  A
O3390     Ni3397   1.909       .  S
O3390      C3400   1.283       .  A
O3391     Ni3397   1.894       .  S
O3391      C3401   1.271       .  A
O3392     Ni3397   1.898       .  S
O3392      C3402   1.273       .  A
O3393     Ni3398   1.974       .  S
O3393      C3402   1.295       .  A
O3394     Ni3398   1.970       .  S
O3394      C3401   1.295       .  A
O3395     Ni3398   1.901       .  S
O3395      C3400   1.272       .  A
O3396     Ni3398   1.897       .  S
O3396      C3399   1.271       .  A
Ni3397    Ni3398   2.389       .  S
O3403     Ni3411   1.954       .  S
O3403      C3413   1.294       .  A
O3404     Ni3411   1.958       .  S
O3404      C3414   1.290       .  A
O3405     Ni3411   1.886       .  S
O3405      C3415   1.270       .  A
O3406     Ni3411   1.904       .  S
O3406      C3416   1.271       .  A
O3407     Ni3412   1.945       .  S
O3407      C3416   1.290       .  A
O3408     Ni3412   1.900       .  S
O3408      C3415   1.280       .  A
O3409     Ni3412   1.888       .  S
O3409      C3414   1.277       .  A
O3410     Ni3412   1.893       .  S
O3410      C3413   1.269       .  A
Ni3411    Ni3412   2.387       .  S
O3417     Ni3425   1.996       .  S
O3417      C3427   1.300       .  A
O3418     Ni3425   1.971       .  S
O3418      C3428   1.297       .  A
O3419     Ni3425   1.833       .  S
O3419      C3429   1.257       .  A
O3420     Ni3425   1.862       .  S
O3420      C3430   1.256       .  A
O3421     Ni3426   1.992       .  S
O3421      C3430   1.303       .  A
O3422     Ni3426   2.000       .  S
O3422      C3429   1.301       .  A
O3423     Ni3426   1.837       .  S
O3423      C3428   1.257       .  A
O3424     Ni3426   1.861       .  S
O3424      C3427   1.264       .  A
Ni3425    Ni3426   2.377       .  S
O3431     Ni3439   2.021       .  S
O3431      C3441   1.304       .  A
O3432     Ni3439   1.985       .  S
O3432      C3442   1.295       .  A
O3433     Ni3439   1.952       .  S
O3433      C3443   1.283       .  A
O3434     Ni3439   1.896       .  S
O3434      C3444   1.270       .  A
O3435     Ni3440   1.907       .  S
O3435      C3444   1.283       .  A
O3436     Ni3440   1.940       .  S
O3436      C3443   1.290       .  A
O3437     Ni3440   1.882       .  S
O3437      C3442   1.274       .  A
O3438     Ni3440   1.912       .  S
O3438      C3441   1.276       .  A
Ni3439    Ni3440   2.379       .  S
O3445     Ni3453   1.969   1_565  S
O3445      C3455   1.286       .  A
O3446      C3456   1.285       .  A
O3447      C3457   1.289       .  A
O3448      C3458   1.290       .  A
O3449      C3458   1.279       .  A
O3450      C3457   1.286       .  A
O3451      C3456   1.282       .  A
O3452     Ni3454   1.945       .  S
O3452      C3455   1.286       .  A
Ni3453    Ni3454   2.373   1_545  S
O3459      C3469   1.273       .  A
O3460     Ni3467   1.846       .  S
O3460      C3470   1.266       .  A
O3461      C3471   1.256       .  A
O3462      C3472   1.247       .  A
O3463      C3472   1.285       .  A
O3464      C3471   1.286   1_655  A
O3465     Ni3468   1.881       .  S
O3465      C3470   1.272       .  A
O3466      C3469   1.266       .  A
Ni3467    Ni3468   2.397       .  S
O3473     Ni3985   1.864   1_565  S
O3473      C3483   1.267       .  A
O3474      C3484   1.264       .  A
O3475     Ni3481   1.897   1_565  S
O3475      C3485   1.284       .  A
O3476      C3486   1.276       .  A
O3477      C3486   1.275       .  A
O3478     Ni3986   1.917       .  S
O3478      C3485   1.270       .  A
O3479      C3484   1.286       .  A
O3480     Ni3482   1.936       .  S
O3480      C3483   1.288       .  A
Ni3481     O3977   1.864   1_544  S
Ni3481    Ni3986   2.385   1_545  S
Ni3482     O3982   1.917       .  S
Ni3482    Ni3985   2.385   1_565  S
O3487     Ni3495   1.939       .  S
O3487      C3497   1.278       .  A
O3488      C3498   1.288       .  A
O3489      C3499   1.267       .  A
O3490     Ni3999   1.907   1_554  S
O3490      C3500   1.280       .  A
O3491     Ni4000   1.989   1_554  S
O3491      C3500   1.295       .  A
O3492      C3499   1.284       .  A
O3493      C3498   1.291       .  A
O3494     Ni3496   1.954       .  S
O3494      C3497   1.293       .  A
Ni3495     O3994   1.907       .  S
Ni3495    Ni3496   2.369       .  S
Ni3496     O3995   1.989       .  S
O3501      C3511   1.284       .  A
O3502     Ni4013   1.953       .  S
O3502      C3512   1.292       .  A
O3503     Ni3509   1.912       .  S
O3503      C3513   1.279       .  A
O3504      C3514   1.285       .  A
O3505      C3514   1.299       .  A
O3506     Ni3510   1.996       .  S
O3506      C3513   1.297       .  A
O3507     Ni4014   1.971       .  S
O3507      C3512   1.287       .  A
O3508      C3511   1.283       .  A
Ni3509     O4006   1.953   1_554  S
Ni3509    Ni3510   2.368       .  S
Ni3510     O4011   1.971   1_554  S
O3515      C3525   1.292   1_455  A
O3516     Ni3523   1.983       .  S
O3516      C3526   1.294       .  A
O3517      C3527   1.277       .  A
O3518     Ni4027   1.918   1_554  S
O3518      C3528   1.275       .  A
O3519     Ni4028   1.973   1_554  S
O3519      C3528   1.295       .  A
O3520     Ni3524   1.974       .  S
O3521     Ni3524   1.914       .  S
O3521      C3526   1.272       .  A
O3522     Ni4028   1.894   1_554  S
Ni3523     O4022   1.918       .  S
Ni3523    Ni3524   2.370       .  S
Ni3524     O4023   1.973       .  S
Ni3524     O4026   1.894       .  S
N3529      C3533   1.366       .  A
N3529      C3530   1.386       .  A
N3529      N3550   1.428       .  S
C3530      C3531   1.380       .  A
C3530      C4018   1.551       .  S
C3531      C3532   1.369       .  A
C3531      H3534   1.069       .  S
C3532      C3533   1.366       .  A
C3532      H3535   1.082       .  S
C3533      N3564   1.438       .  S
N3536      C3540   1.335       .  A
N3536      C3537   1.339       .  A
N3536      C3561   1.432       .  S
C3537      C3538   1.375       .  A
C3537      C3973   1.430       .  S
C3538      C3539   1.373       .  A
C3539      C3540   1.381       .  A
C3539      H3542   1.082       .  S
C3540      C3568   1.449       .  S
N3543      C3547   1.360       .  A
N3543      C3544   1.373       .  A
N3543      C3554   1.461       .  S
C3544      C3545   1.359       .  A
C3544      C4003   1.478       .  S
C3545      C3546   1.365       .  A
C3546      C3547   1.388       .  A
C3546      H3549   1.059       .  S
C3547      N3557   1.460       .  S
N3550      C3554   1.363       .  A
N3550      C3551   1.372       .  A
C3551      C3552   1.380       .  A
C3551      C3945   1.538       .  S
C3552      C3553   1.372       .  A
C3552      H3555   1.076       .  S
C3553      C3554   1.387       .  A
C3553      H3556   1.080       .  S
N3557      C3561   1.353       .  A
N3557      C3558   1.357       .  A
C3558      C3559   1.371       .  A
C3558      C3919   1.436       .  S
C3559      C3560   1.356       .  A
C3559      H3562   1.084       .  S
C3560      C3561   1.390       .  A
C3560      H3563   1.079       .  S
N3564      C3568   1.342       .  A
N3564      C3565   1.353       .  A
C3565      C3566   1.381       .  A
C3565      C3904   1.447       .  S
C3566      C3567   1.359       .  A
C3566      H3569   1.080       .  S
C3567      C3568   1.374       .  A
C3567      H3570   1.080       .  S
N3571      C3575   1.388       .  A
N3571      C3572   1.393       .  A
N3571      N3606   1.463       .  S
C3572      C3573   1.364       .  A
C3572      C4001   1.513       .  S
C3573      C3574   1.349       .  A
C3573      H3576   1.082       .  S
C3574      C3575   1.389       .  A
C3574      H3577   1.074       .  S
C3575      N3592   1.480       .  S
N3578      C3582   1.342       .  A
N3578      C3579   1.359       .  A
N3578      C3603   1.462       .  S
C3579      C3580   1.377       .  A
C3579      C3976   1.416       .  S
C3580      C3581   1.370       .  A
C3580      H3583   1.084       .  S
C3581      C3582   1.350       .  A
C3581      H3584   1.072       .  S
C3582      C3610   1.427       .  S
N3585      C3589   1.345       .  A
N3585      C3586   1.376       .  A
N3585      C3596   1.423       .  S
C3586      C3587   1.377       .  A
C3586      C3990   1.468       .  S
C3587      C3588   1.342       .  A
C3587      H3590   1.082       .  S
C3588      C3589   1.382       .  A
C3588      H3591   1.070       .  S
C3589      N3599   1.407       .  S
N3592      C3596   1.377       .  A
N3592      C3593   1.380       .  A
C3593      C3594   1.361       .  A
C3593      C3948   1.445       .  S
C3594      C3595   1.331       .  A
C3594      H3597   1.083       .  S
C3595      C3596   1.367       .  A
C3595      H3598   1.070       .  S
N3599      C3603   1.353       .  A
N3599      C3600   1.353       .  A
C3600      C3601   1.380       .  A
C3600      C3905   1.486       .  S
C3601      C3602   1.374       .  A
C3601      H3604   1.080       .  S
C3602      C3603   1.386       .  A
C3602      H3605   1.081       .  S
N3606      C3610   1.360       .  A
N3606      C3607   1.400       .  A
C3607      C3608   1.395       .  A
C3607      C3891   1.491       .  S
C3608      C3609   1.353       .  A
C3608      H3611   1.078       .  S
C3609      C3610   1.366       .  A
C3609      H3612   1.083       .  S
N3613      C3617   1.373       .  A
N3613      C3614   1.354       .  A
N3613      C3638   1.465       .  S
C3614      C3615   1.371       .  A
C3614      C3987   1.466       .  S
C3615      C3616   1.347       .  A
C3615      H3618   1.071       .  S
C3616      C3617   1.383       .  A
C3616      H3619   1.080       .  S
C3617      N3648   1.436       .  S
N3620      C3624   1.325       .  A
N3620      C3621   1.326       .  A
N3620      C3652   1.410       .  S
C3621      C3622   1.381       .  A
C3621      C3974   1.405       .  S
C3622      C3623   1.361       .  A
C3622      H3625   1.078       .  S
C3623      C3624   1.377       .  A
C3623      H3626   1.077       .  S
C3624      C3645   1.444       .  S
N3627      C3631   1.363       .  A
N3627      C3628   1.376       .  A
N3627      N3634   1.416       .  S
C3628      C3629   1.374       .  A
C3628      C4030   1.511       .  S
C3629      C3630   1.372       .  A
C3629      H3632   1.081       .  S
C3630      C3631   1.379       .  A
C3630      H3633   1.070       .  S
C3631      N3641   1.448       .  S
N3634      C3638   1.365       .  A
N3634      C3635   1.367       .  A
C3635      C3636   1.373       .  A
C3635      C3946   1.500       .  S
C3636      C3637   1.351       .  A
C3636      H3639   1.081       .  S
C3637      C3638   1.398       .  A
C3637      H3640   1.072       .  S
N3641      C3645   1.340       .  A
N3641      C3642   1.348       .  A
C3642      C3643   1.376       .  A
C3642      C3889   1.449       .  S
C3643      C3644   1.363       .  A
C3643      H3646   1.077       .  S
C3644      C3645   1.368       .  A
C3644      H3647   1.081       .  S
N3648      C3652   1.344       .  A
N3648      C3649   1.346       .  A
C3649      C3650   1.382       .  A
C3649      C3932   1.464       .  S
C3650      C3651   1.362       .  A
C3650      H3653   1.082       .  S
C3651      C3652   1.385       .  A
C3651      H3654   1.081       .  S
N3655      C3659   1.334       .  A
N3655      C3656   1.348       .  A
N3655      C3694   1.439       .  S
C3656      C3657   1.380       .  A
C3656      C3975   1.419   1_655  S
C3657      C3658   1.362       .  A
C3658      C3659   1.384       .  A
C3658      H3661   1.082       .  S
C3659      C3680   1.434       .  S
N3662      C3666   1.387       .  A
N3662      C3663   1.389       .  A
N3662      N3683   1.459       .  S
C3663      C3664   1.370       .  A
C3663      C4016   1.534       .  S
C3664      C3665   1.368       .  A
C3664      H3667   1.075       .  S
C3665      C3666   1.380       .  A
C3665      H3668   1.075       .  S
C3666      N3690   1.477       .  S
N3669      C3673   1.391       .  A
N3669      C3670   1.394       .  A
N3669      C3687   1.483       .  S
C3670      C3671   1.382       .  A
C3670      C4031   1.523   1_655  S
C3671      C3672   1.374       .  A
C3672      C3673   1.381       .  A
C3672      H3675   1.080       .  S
C3673      N3676   1.465       .  S
N3676      C3680   1.336       .  A
N3676      C3677   1.364       .  A
C3677      C3678   1.393       .  A
C3677      C3918   1.494       .  S
C3678      C3679   1.362       .  A
C3678      H3681   1.084       .  S
C3679      C3680   1.365       .  A
C3679      H3682   1.070       .  S
N3683      C3687   1.385       .  A
N3683      C3684   1.380       .  A
C3684      C3685   1.363       .  A
C3684      C3947   1.510       .  S
C3685      C3686   1.362       .  A
C3685      H3688   1.069       .  S
C3686      C3687   1.391       .  A
C3686      H3689   1.078       .  S
N3690      C3694   1.354       .  A
N3690      C3691   1.392       .  A
C3691      C3692   1.376       .  A
C3691      C3934   1.495       .  S
C3692      C3693   1.368       .  A
C3692      H3695   1.082       .  S
C3693      C3694   1.387       .  A
C3693      H3696   1.078       .  S
N3697      C3701   1.367       .  A
N3697      C3698   1.355       .  A
N3697      C3722   1.412       .  S
C3698      C3699   1.383       .  A
C3698      C4032   1.521       .  S
C3699      C3700   1.391       .  A
C3699      H3702   1.082       .  S
C3700      C3701   1.389       .  A
C3700      H3703   1.074       .  S
C3701      C3736   1.514       .  S
N3704      C3708   1.371       .  A
N3704      C3705   1.395       .  A
N3704      N3732   1.438       .  S
C3705      C3706   1.382       .  A
C3705      C3959   1.513       .  S
C3706      C3707   1.365       .  A
C3706      H3709   1.083       .  S
C3707      C3708   1.377       .  A
C3707      H3710   1.074       .  S
C3708      N3725   1.443       .  S
N3711      C3715   1.360       .  A
N3711      C3712   1.376       .  A
N3711      N3718   1.431       .  S
C3712      C3713   1.384       .  A
C3712      C3989   1.464       .  S
C3713      C3714   1.343       .  A
C3713      H3716   1.083       .  S
C3714      C3715   1.379       .  A
C3714      H3717   1.083       .  S
C3715      C3729   1.458       .  S
N3718      C3722   1.356       .  A
N3718      C3719   1.368       .  A
C3719      C3720   1.377       .  A
C3719      C3875   1.446       .  S
C3720      C3721   1.344       .  A
C3720      H3723   1.082       .  S
C3721      C3722   1.377       .  A
C3721      H3724   1.079       .  S
N3725      C3729   1.357       .  A
N3725      C3726   1.358       .  A
C3726      C3727   1.376       .  A
C3726      C3933   1.493       .  S
C3727      C3728   1.360       .  A
C3727      H3730   1.083       .  S
C3728      C3729   1.379       .  A
C3728      H3731   1.068       .  S
N3732      C3736   1.380       .  A
N3732      C3733   1.407       .  A
C3733      C3734   1.370       .  A
C3733      C3892   1.523       .  S
C3734      C3735   1.355       .  A
C3734      H3737   1.077       .  S
C3735      C3736   1.376       .  A
C3735      H3738   1.075       .  S
N3739      C3743   1.401       .  A
N3739      C3740   1.367       .  A
N3739      N3760   1.435       .  S
C3740      C3741   1.371       .  A
C3740      C4017   1.519       .  S
C3741      C3742   1.364       .  A
C3741      H3744   1.071       .  S
C3742      C3743   1.386       .  A
C3742      H3745   1.076       .  S
C3743      N3774   1.503       .  S
N3746      C3750   1.368       .  A
N3746      C3747   1.381       .  A
N3746      C3778   1.466       .  S
C3747      C3748   1.383       .  A
C3747      C3962   1.503       .  S
C3748      C3749   1.367       .  A
C3749      C3750   1.380       .  A
C3750      N3767   1.441       .  S
N3753      C3757   1.352       .  A
N3753      C3754   1.359       .  A
N3753      C3764   1.412       .  S
C3754      C3755   1.382   1_655  A
C3754      C4029   1.485       .  S
C3755      C3756   1.371   1_455  A
C3756      C3757   1.367       .  A
C3756      H3759   1.076   1_655  S
C3757      C3771   1.504       .  S
N3760      C3764   1.361       .  A
N3760      C3761   1.387       .  A
C3761      C3762   1.383       .  A
C3761      C3877   1.497       .  S
C3762      C3763   1.361       .  A
C3762      H3765   1.084       .  S
C3763      C3764   1.374       .  A
C3763      H3766   1.081       .  S
N3767      C3771   1.356       .  A
N3767      C3768   1.372       .  A
C3768      C3769   1.381       .  A
C3768      C3920   1.486       .  S
C3769      C3770   1.371       .  A
C3769      H3772   1.083       .  S
C3770      C3771   1.381       .  A
C3770      H3773   1.073       .  S
N3774      C3778   1.370       .  A
N3774      C3775   1.369       .  A
C3775      C3776   1.384       .  A
C3775      C3931   1.498       .  S
C3776      C3777   1.357       .  A
C3776      H3779   1.083       .  S
C3777      C3778   1.380       .  A
C3777      H3780   1.076       .  S
N3781      C3785   1.382       .  A
N3781      C3782   1.391       .  A
N3781      N3802   1.463       .  S
C3782      C3783   1.390       .  A
C3782      C4002   1.537       .  S
C3783      C3784   1.356       .  A
C3783      H3786   1.083       .  S
C3784      C3785   1.379       .  A
C3784      H3787   1.083       .  S
C3785      C3820   1.477       .  S
N3788      C3792   1.367       .  A
N3788      C3789   1.376       .  A
N3788      N3816   1.433       .  S
C3789      C3790   1.384       .  A
C3789      C3960   1.485       .  S
C3790      C3791   1.360       .  A
C3791      C3792   1.375       .  A
C3791      H3794   1.080       .  S
C3792      N3809   1.428       .  S
N3795      C3799   1.367       .  A
N3795      C3796   1.365       .  A
N3795      C3806   1.438       .  S
C3796      C3797   1.379       .  A
C3796      C4015   1.494       .  S
C3797      C3798   1.378       .  A
C3798      C3799   1.385       .  A
C3798      H3801   1.079       .  S
C3799      C3813   1.506       .  S
N3802      C3806   1.375       .  A
N3802      C3803   1.400       .  A
C3803      C3804   1.392       .  A
C3803      C3876   1.523       .  S
C3804      C3805   1.349       .  A
C3804      H3807   1.084       .  S
C3805      C3806   1.368       .  A
C3805      H3808   1.081       .  S
N3809      C3813   1.353       .  A
N3809      C3810   1.362       .  A
C3810      C3811   1.381       .  A
C3810      C3906   1.500       .  S
C3811      C3812   1.391       .  A
C3811      H3814   1.080       .  S
C3812      C3813   1.369       .  A
C3812      H3815   1.077       .  S
N3816      C3820   1.371       .  A
N3816      C3817   1.374       .  A
C3817      C3818   1.385       .  A
C3817      C3917   1.475       .  S
C3818      C3819   1.368       .  A
C3818      H3821   1.083       .  S
C3819      C3820   1.378       .  A
C3819      H3822   1.082       .  S
N3823      C3827   1.387       .  A
N3823      C3824   1.407       .  A
N3823      N3858   1.467       .  S
C3824      C3825   1.381       .  A
C3824      C4004   1.506       .  S
C3825      C3826   1.332       .  A
C3825      H3828   1.085       .  S
C3826      C3827   1.370       .  A
C3826      H3829   1.078       .  S
C3827      C3855   1.467       .  S
N3830      C3834   1.352       .  A
N3830      C3831   1.366       .  A
N3830      C3862   1.460       .  S
C3831      C3832   1.378       .  A
C3831      C3988   1.454       .  S
C3832      C3833   1.371       .  A
C3832      H3835   1.081       .  S
C3833      C3834   1.381       .  A
C3833      H3836   1.082       .  S
C3834      C3848   1.471       .  S
N3837      C3841   1.343       .  A
N3837      C3838   1.374       .  A
N3837      N3851   1.436       .  S
C3838      C3839   1.378       .  A
C3838      C3961   1.530       .  S
C3839      C3840   1.367       .  A
C3839      H3842   1.076       .  S
C3840      C3841   1.361       .  A
C3840      H3843   1.074       .  S
C3841      N3844   1.425       .  S
N3844      C3848   1.347       .  A
N3844      C3845   1.340       .  A
C3845      C3846   1.374       .  A
C3845      C3903   1.455       .  S
C3846      C3847   1.365       .  A
C3846      H3849   1.061       .  S
C3847      C3848   1.373       .  A
C3847      H3850   1.081       .  S
N3851      C3855   1.360       .  A
N3851      C3852   1.384       .  A
C3852      C3853   1.387       .  A
C3852      C3890   1.506       .  S
C3853      C3854   1.380       .  A
C3853      H3856   1.083       .  S
C3854      C3855   1.376       .  A
C3854      H3857   1.082       .  S
N3858      C3862   1.369       .  A
N3858      C3859   1.409       .  A
C3859      C3860   1.387       .  A
C3859      C3878   1.588       .  S
C3860      C3861   1.365       .  A
C3860      H3863   1.082       .  S
C3861      C3862   1.378       .  A
C3861      H3864   1.068       .  S
O3865     Ni3873   1.893       .  S
O3865      C3875   1.276       .  A
O3866     Ni3873   1.948       .  S
O3866      C3876   1.281       .  A
O3867     Ni3873   1.978       .  S
O3867      C3877   1.291       .  A
O3868     Ni3873   2.024       .  S
O3868      C3878   1.301       .  A
O3869     Ni3874   1.973       .  S
O3869      C3878   1.296       .  A
O3870     Ni3874   1.918       .  S
O3870      C3877   1.281       .  A
O3871     Ni3874   1.956       .  S
O3871      C3876   1.293       .  A
O3872     Ni3874   1.910       .  S
O3872      C3875   1.276       .  A
Ni3873    Ni3874   2.369       .  S
O3879     Ni3887   1.899       .  S
O3879      C3889   1.286       .  A
O3880     Ni3887   1.985       .  S
O3880      C3890   1.301       .  A
O3881     Ni3887   1.884       .  S
O3881      C3891   1.274       .  A
O3882     Ni3887   1.924       .  S
O3882      C3892   1.272       .  A
O3883     Ni3888   2.016       .  S
O3883      C3892   1.309       .  A
O3884     Ni3888   1.964       .  S
O3884      C3891   1.300       .  A
O3885     Ni3888   1.906       .  S
O3885      C3890   1.270       .  A
O3886     Ni3888   1.852       .  S
O3886      C3889   1.262       .  A
Ni3887    Ni3888   2.384       .  S
O3893     Ni3901   1.915       .  S
O3893      C3903   1.285       .  A
O3894     Ni3901   1.909       .  S
O3894      C3904   1.283       .  A
O3895     Ni3901   1.894       .  S
O3895      C3905   1.271       .  A
O3896     Ni3901   1.898       .  S
O3896      C3906   1.273       .  A
O3897     Ni3902   1.974       .  S
O3897      C3906   1.295       .  A
O3898     Ni3902   1.970       .  S
O3898      C3905   1.295       .  A
O3899     Ni3902   1.901       .  S
O3899      C3904   1.272       .  A
O3900     Ni3902   1.897       .  S
O3900      C3903   1.271       .  A
Ni3901    Ni3902   2.389       .  S
O3907     Ni3915   1.954       .  S
O3907      C3917   1.294       .  A
O3908     Ni3915   1.958       .  S
O3908      C3918   1.290       .  A
O3909     Ni3915   1.886       .  S
O3909      C3919   1.270       .  A
O3910     Ni3915   1.904       .  S
O3910      C3920   1.271       .  A
O3911     Ni3916   1.945       .  S
O3911      C3920   1.290       .  A
O3912     Ni3916   1.900       .  S
O3912      C3919   1.280       .  A
O3913     Ni3916   1.888       .  S
O3913      C3918   1.277       .  A
O3914     Ni3916   1.893       .  S
O3914      C3917   1.269       .  A
Ni3915    Ni3916   2.387       .  S
O3921     Ni3929   1.996       .  S
O3921      C3931   1.300       .  A
O3922     Ni3929   1.971       .  S
O3922      C3932   1.297       .  A
O3923     Ni3929   1.833       .  S
O3923      C3933   1.257       .  A
O3924     Ni3929   1.862       .  S
O3924      C3934   1.256       .  A
O3925     Ni3930   1.992       .  S
O3925      C3934   1.303       .  A
O3926     Ni3930   2.000       .  S
O3926      C3933   1.301       .  A
O3927     Ni3930   1.837       .  S
O3927      C3932   1.257       .  A
O3928     Ni3930   1.861       .  S
O3928      C3931   1.264       .  A
Ni3929    Ni3930   2.377       .  S
O3935     Ni3943   2.021       .  S
O3935      C3945   1.304       .  A
O3936     Ni3943   1.985       .  S
O3936      C3946   1.295       .  A
O3937     Ni3943   1.952       .  S
O3937      C3947   1.283       .  A
O3938     Ni3943   1.896       .  S
O3938      C3948   1.270       .  A
O3939     Ni3944   1.907       .  S
O3939      C3948   1.283       .  A
O3940     Ni3944   1.940       .  S
O3940      C3947   1.290       .  A
O3941     Ni3944   1.882       .  S
O3941      C3946   1.274       .  A
O3942     Ni3944   1.912       .  S
O3942      C3945   1.276       .  A
Ni3943    Ni3944   2.379       .  S
O3949     Ni3957   1.969   1_565  S
O3949      C3959   1.286       .  A
O3950      C3960   1.285       .  A
O3951      C3961   1.289       .  A
O3952      C3962   1.290       .  A
O3953      C3962   1.279       .  A
O3954      C3961   1.286       .  A
O3955      C3960   1.282       .  A
O3956     Ni3958   1.945       .  S
O3956      C3959   1.286       .  A
Ni3957    Ni3958   2.373   1_545  S
O3963      C3973   1.273       .  A
O3964     Ni3971   1.846       .  S
O3964      C3974   1.266       .  A
O3965      C3975   1.256       .  A
O3966      C3976   1.247       .  A
O3967      C3976   1.285       .  A
O3968      C3975   1.286   1_655  A
O3969     Ni3972   1.881       .  S
O3969      C3974   1.272       .  A
O3970      C3973   1.266       .  A
Ni3971    Ni3972   2.397       .  S
O3977      C3987   1.267       .  A
O3978      C3988   1.264       .  A
O3979     Ni3985   1.897   1_565  S
O3979      C3989   1.284       .  A
O3980      C3990   1.276       .  A
O3981      C3990   1.275       .  A
O3982      C3989   1.270       .  A
O3983      C3988   1.286       .  A
O3984     Ni3986   1.936   1_556  S
O3984      C3987   1.288       .  A
O3991     Ni3999   1.939       .  S
O3991      C4001   1.278       .  A
O3992      C4002   1.288       .  A
O3993      C4003   1.267       .  A
O3994      C4004   1.280       .  A
O3995      C4004   1.295       .  A
O3996      C4003   1.284       .  A
O3997      C4002   1.291       .  A
O3998     Ni4000   1.954       .  S
O3998      C4001   1.293       .  A
Ni3999    Ni4000   2.369       .  S
O4005      C4015   1.284       .  A
O4006      C4016   1.292       .  A
O4007     Ni4013   1.912       .  S
O4007      C4017   1.279       .  A
O4008      C4018   1.285       .  A
O4009      C4018   1.299       .  A
O4010     Ni4014   1.996       .  S
O4010      C4017   1.297       .  A
O4011      C4016   1.287       .  A
O4012      C4015   1.283       .  A
Ni4013    Ni4014   2.368       .  S
O4019      C4029   1.292   1_455  A
O4020     Ni4027   1.983       .  S
O4020      C4030   1.294       .  A
O4021      C4031   1.277       .  A
O4022      C4032   1.275       .  A
O4023      C4032   1.295       .  A
O4024     Ni4028   1.974       .  S
O4025     Ni4028   1.914       .  S
O4025      C4030   1.272       .  A
Ni4027    Ni4028   2.370       .  S
