geometry optimzed in LAMMPS
_audit_creation_date              2020-11-30 
_audit_creation_method            'lammps2cif' 
_symmetry_space_group_name_H-M    'P1' 
_symmetry_Int_Tables_number       1 
_symmetry_cell_setting            triclinic 
loop_ 
_symmetry_equiv_pos_as_xyz 
  x,y,z 
_cell_length_a                    45.01374236 
_cell_length_b                    45.09225685983369 
_cell_length_c                    44.86519736304594 
_cell_angle_alpha                 89.78802697711188 
_cell_angle_beta                  89.90423499886721 
_cell_angle_gamma                 90.01327240060658 
loop_ 
_atom_site_label 
_atom_site_type_symbol 
_atom_site_fract_x 
_atom_site_fract_y 
_atom_site_fract_z 
_atom_site_charge 
C1          C  0.83542041  0.51852912  0.72483858     0.03300
C2          C  0.80403782  0.51774145  0.72551248     0.03300
C3          C  0.78960751  0.50964297  0.75192362    -0.17200
C4          C  0.80557103  0.50378773  0.77800140     0.03300
C5          C  0.83672251  0.50764109  0.77826724     0.03300
C6          C  0.85142386  0.51443709  0.75144190    -0.17200
H7          H  0.87543298  0.51596711  0.75113112     0.05300
H8          H  0.76557865  0.50769154  0.75215001     0.05300
C9          C  0.49482407  0.71988876  0.83929211     0.03300
C10         C  0.49927017  0.72299774  0.80820517     0.03300
C11         C  0.49846797  0.75119556  0.79513132    -0.17200
C12         C  0.49444951  0.77670878  0.81227775     0.03300
C13         C  0.49145398  0.77408608  0.84356523     0.03300
C14         C  0.49145175  0.74563195  0.85679026    -0.17200
H15         H  0.48939043  0.74362931  0.88076991     0.05300
H16         H  0.50074578  0.75328342  0.77113073     0.05300
C17         C  0.77858135  0.81063755  0.49842249     0.03300
C18         C  0.77636357  0.84182388  0.49499334     0.03300
C19         C  0.74786401  0.85516903  0.49516173    -0.17200
C20         C  0.72178273  0.83793580  0.49865424     0.03300
C21         C  0.72452646  0.80694323  0.50283006     0.03300
C22         C  0.75261279  0.79374279  0.50172750    -0.17200
H23         H  0.75430272  0.76985625  0.50418118     0.05300
H24         H  0.74599482  0.87906458  0.49358202     0.05300
O25         O  0.62769019  0.44785557  0.93124370    -0.77500
C26         C  0.57274961  0.46273002  0.01165903     0.83600
O27         O  0.56410655  0.36118535  0.94535663    -0.78600
O28         O  0.48791463  0.43884770  0.96681774    -0.80100
O29         O  0.54017003  0.49466037  0.89298426    -0.79900
O30         O  0.60676371  0.46174018  0.88885352    -0.78500
Zn31       Zn  0.59365741  0.43013727  0.95534681     1.55700
O32         O  0.51933689  0.50083061  0.93760799    -0.79900
Cd33       Cd  0.56190834  0.45415359  0.89572356     1.59700
Cd34       Cd  0.53706769  0.39516036  0.92958009     1.59600
O35         O  0.54697268  0.42715420  0.86158423    -0.79900
O36         O  0.55560745  0.43506358  0.93539682    -1.90400
Cd37       Cd  0.52818483  0.46065133  0.95953545     1.59900
O38         O  0.53022339  0.38706111  0.88478794    -0.79800
O39         O  0.54730827  0.46899305  0.00090166    -0.78500
C40         C  0.59028644  0.36192592  0.95616218     0.84000
C41         C  0.62987041  0.45848288  0.90499242     0.83700
O42         O  0.59192710  0.44876048  0.99610983    -0.77400
C43         C  0.52498787  0.51010385  0.91123174     0.84500
O44         O  0.60332065  0.38652844  0.96093551    -0.77500
C45         C  0.53521132  0.40150379  0.86080197     0.84600
C46         C  0.47909003  0.41232622  0.96217616     0.85000
O47         O  0.49572304  0.39330240  0.94951947    -0.80000
O48         O  0.62788459  0.54899888  0.56385790    -0.77500
C49         C  0.57572601  0.53190852  0.48292666     0.83600
O50         O  0.56372421  0.63298099  0.55177372    -0.78600
O51         O  0.48827271  0.55493102  0.52780143    -0.80100
O52         O  0.54329907  0.49699574  0.59879228    -0.79900
O53         O  0.60757175  0.53477533  0.60661142    -0.78500
Zn54       Zn  0.59391424  0.56514809  0.53945850     1.55700
O55         O  0.52122360  0.49302998  0.55462393    -0.79900
Cd56       Cd  0.56228134  0.53900678  0.59864877     1.59700
Cd57       Cd  0.53723842  0.59797321  0.56551970     1.59600
O58         O  0.54407334  0.56384180  0.63342413    -0.79900
O59         O  0.55606441  0.55862646  0.55901739    -1.90400
Cd60       Cd  0.52925016  0.53366601  0.53356829     1.59900
O61         O  0.52907225  0.60440544  0.60997235    -0.79800
O62         O  0.54949352  0.52577061  0.49209338    -0.78500
C63         C  0.58949644  0.63319263  0.54016819     0.84000
C64         C  0.63048814  0.53929477  0.59037350     0.83700
O65         O  0.59390370  0.54626348  0.49908504    -0.77400
C66         C  0.52817526  0.48211911  0.57996493     0.84500
O67         O  0.60268543  0.60889081  0.53422804    -0.77500
C68         C  0.53237638  0.58957307  0.63393591     0.84600
C69         C  0.47927891  0.58119996  0.53332305     0.85000
O70         O  0.49633481  0.60012227  0.54555993    -0.80000
O71         O  0.42648026  0.86160769  0.55375481    -0.77500
C72         C  0.51073886  0.90874137  0.53217264     0.83600
O73         O  0.44466368  0.92864400  0.63517892    -0.78600
O74         O  0.47117538  0.99846935  0.55433483    -0.80100
O75         O  0.39640744  0.94805603  0.49882263    -0.79900
O76         O  0.38700563  0.88462187  0.53527338    -0.78500
Zn77       Zn  0.45369961  0.89486134  0.56737137     1.55700
O78         O  0.44140209  0.96734372  0.49262220    -0.79900
Cd79       Cd  0.39667720  0.92874020  0.54037638     1.59700
Cd80       Cd  0.42929058  0.95381562  0.59920168     1.59600
O81         O  0.36200251  0.94586837  0.56528179    -0.79900
O82         O  0.43603769  0.93349868  0.56011988    -1.90400
Cd83       Cd  0.46249036  0.95795789  0.53350180     1.59900
O84         O  0.38437509  0.96061985  0.60651795    -0.79800
O85         O  0.50239301  0.93505396  0.52534916    -0.78500
C86         C  0.45541905  0.90245579  0.63558838     0.84000
C87         C  0.40074257  0.86085776  0.54200885     0.83700
O88         O  0.49394062  0.89168189  0.54738522    -0.77400
C89         C  0.41513830  0.96220928  0.48301892     0.84500
O90         O  0.45987445  0.88854897  0.61139435    -0.77500
C91         C  0.36075505  0.95675401  0.59133966     0.84600
C92         C  0.46395021  0.00993738  0.57929892     0.85000
O93         O  0.44887550  0.99525569  0.59844800    -0.80000
C94         C  0.50638448  0.27255992  0.65242710     0.03300
C95         C  0.50852816  0.27057905  0.68382418     0.03300
C96         C  0.50288302  0.24352298  0.69788820    -0.17200
C97         C  0.49653500  0.21807730  0.68152248     0.03300
C98         C  0.49666637  0.21913823  0.65007540     0.03300
C99         C  0.50145378  0.24658110  0.63571650    -0.17200
H100        H  0.50080887  0.24781373  0.61159702     0.05300
H101        H  0.50308943  0.24231375  0.72206281     0.05300
O102        O  0.43011295  0.13465703  0.93830761    -0.77500
C103        C  0.51227885  0.07988464  0.95605467     0.83600
O104        O  0.44580764  0.06364614  0.85785350    -0.78600
O105        O  0.46607447  0.99294179  0.93894938    -0.80100
O106        O  0.39643480  0.05166974  0.99436197    -0.79900
O107        O  0.38839512  0.11381579  0.95424656    -0.78500
Zn108      Zn  0.45503665  0.09918374  0.92430282     1.55700
O109        O  0.44090017  0.03106218  0.99974033    -0.79900
Cd110      Cd  0.39617247  0.06865022  0.95130060     1.59700
Cd111      Cd  0.42866734  0.04034253  0.89350185     1.59600
O112        O  0.36106901  0.05158092  0.92642783    -0.79900
O113        O  0.43536607  0.06139218  0.93179517    -1.90400
Cd114      Cd  0.46034310  0.03514646  0.95768642     1.59900
O115        O  0.38409957  0.03556944  0.88569476    -0.79800
O116        O  0.50197484  0.05433385  0.96249442    -0.78500
C117        C  0.45743707  0.08927382  0.85646457     0.84000
C118        C  0.40375281  0.13695232  0.94857003     0.83700
O119        O  0.49603888  0.09913904  0.94292749    -0.77400
C120        C  0.41569938  0.03836371  0.01048592     0.84500
O121        O  0.46147279  0.10442008  0.88007768    -0.77500
C122        C  0.36040982  0.04073318  0.90019825     0.84600
C123        C  0.45985909  0.98264179  0.91318427     0.85000
O124        O  0.44642536  0.99836065  0.89388914    -0.80000
C125        C  0.71768673  0.18678410  0.99596270     0.03300
C126        C  0.71964338  0.15569138  0.99226758     0.03300
C127        C  0.74763808  0.14179030  0.99432479    -0.17200
C128        C  0.77363738  0.15851642  0.99915985     0.03300
C129        C  0.77126548  0.18940934  0.00362914     0.03300
C130        C  0.74346520  0.20312670  0.00154559    -0.17200
H131        H  0.74188845  0.22698581  0.00418834     0.05300
H132        H  0.74925737  0.11791297  0.99245322     0.05300
C133        C  0.15456521  0.99449356  0.72140636     0.03300
C134        C  0.18563266  0.99040276  0.72291561     0.03300
C135        C  0.20010725  0.99251553  0.75031962    -0.17200
C136        C  0.18428002  0.99754207  0.77665039     0.03300
C137        C  0.15300649  0.00050125  0.77559075     0.03300
C138        C  0.13840882  0.99914076  0.74788447    -0.17200
H139        H  0.11444587  0.00119813  0.74705101     0.05300
H140        H  0.22409720  0.99026443  0.75114365     0.05300
C141        C  0.97826094  0.78219548  0.18769736     0.03300
C142        C  0.98103945  0.78241738  0.15628603     0.03300
C143        C  0.97611931  0.75597187  0.14030507    -0.17200
C144        C  0.96930865  0.72924967  0.15520581     0.03300
C145        C  0.96669385  0.72928349  0.18662902     0.03300
C146        C  0.97128770  0.75566095  0.20233338    -0.17200
H147        H  0.96987268  0.75542211  0.22648171     0.05300
H148        H  0.97753368  0.75612563  0.11620833     0.05300
C149        C  0.26680406  0.68673769  0.51256973     0.03300
C150        C  0.26876270  0.65547821  0.51087927     0.03300
C151        C  0.24281437  0.63893645  0.50516237    -0.17200
C152        C  0.21531529  0.65320013  0.50066909     0.03300
C153        C  0.21399560  0.68451298  0.50161398     0.03300
C154        C  0.23959336  0.70075721  0.50788451    -0.17200
H155        H  0.23841724  0.72478687  0.50862358     0.05300
H156        H  0.24405125  0.61496094  0.50403982     0.05300
C157        C  0.68039024  0.49791874  0.21763061     0.03300
C158        C  0.64914563  0.49569072  0.21946174     0.03300
C159        C  0.63504758  0.49844081  0.24742159    -0.17200
C160        C  0.65179168  0.50268845  0.27359567     0.03300
C161        C  0.68297110  0.50592013  0.27130067     0.03300
C162        C  0.69684861  0.50293392  0.24352381    -0.17200
H163        H  0.72084875  0.50464338  0.24203051     0.05300
H164        H  0.61103657  0.49738786  0.24873008     0.05300
O165        O  0.85746347  0.55456039  0.43026600    -0.77500
C166        C  0.90723941  0.54032509  0.51378519     0.83600
O167        O  0.93008143  0.63582203  0.44772395    -0.78600
O168        O  0.99638186  0.55378297  0.47120545    -0.80100
O169        O  0.94228642  0.49921617  0.39929355    -0.79900
O170        O  0.87991947  0.53585457  0.39071806    -0.78500
Zn171      Zn  0.89185521  0.57075999  0.45480278     1.55700
O172        O  0.95866872  0.49304876  0.44549275    -0.79900
Cd173      Cd  0.92454226  0.54147943  0.39849608     1.59700
Cd174      Cd  0.95204364  0.59957390  0.42985080     1.59600
O175        O  0.94036989  0.56642570  0.36286190    -0.79900
O176        O  0.93024994  0.56178614  0.43730185    -1.90400
Cd177      Cd  0.95427619  0.53542851  0.46414465     1.59900
O178        O  0.95534595  0.60785973  0.38455059    -0.79800
O179        O  0.93290137  0.53171838  0.50522334    -0.78500
C180        C  0.90317583  0.63778820  0.45628297     0.84000
C181        C  0.85619915  0.54175295  0.40504288     0.83700
O182        O  0.88994022  0.55446099  0.49641638    -0.77400
C183        C  0.95339020  0.48269694  0.41958222     0.84500
O184        O  0.88666485  0.61497278  0.45872419    -0.77500
C185        C  0.95016034  0.59286167  0.36106306     0.84600
C186        C  0.00838049  0.57823453  0.46329924     0.85000
O187        O  0.99404814  0.59714346  0.44773709    -0.80000
O188        O  0.06343851  0.86349024  0.45266412    -0.77500
C189        C  0.98485601  0.91967842  0.46795315     0.83600
O190        O  0.04747018  0.92590293  0.36415413    -0.78600
O191        O  0.03087170  0.00375539  0.43946960    -0.80100
O192        O  0.10469982  0.95013913  0.49468583    -0.79900
O193        O  0.10656866  0.88348125  0.46487019    -0.78500
Zn194      Zn  0.04004051  0.89742365  0.43408762     1.55700
O195        O  0.06088223  0.97211880  0.50135264    -0.79900
Cd196      Cd  0.10106515  0.92794891  0.45479115     1.59700
Cd197      Cd  0.06665228  0.95255643  0.39647438     1.59600
O198        O  0.13547140  0.94085350  0.42644128    -0.79900
O199        O  0.06095499  0.93504147  0.43700027    -1.90400
Cd200      Cd  0.03748518  0.96351763  0.46221341     1.59900
O201        O  0.11131629  0.95647555  0.38622756    -0.79800
O202        O  0.99591151  0.94521253  0.47320003    -0.78500
C203        C  0.03576167  0.90017677  0.36591731     0.84000
C204        C  0.08951503  0.86094181  0.46332341     0.83700
O205        O  0.99995683  0.90022693  0.45396695    -0.77400
C206        C  0.08705294  0.96569496  0.51036076     0.84500
O207        O  0.03235132  0.88725137  0.39096625    -0.77500
C208        C  0.13549278  0.95119504  0.39992081     0.84600
C209        C  0.03651308  0.01223406  0.41280130     0.85000
O210        O  0.04926683  0.99499843  0.39436542    -0.80000
O211        O  0.85749510  0.44609512  0.06733535    -0.77500
C212        C  0.90993363  0.46789544  0.98580906     0.83600
O213        O  0.92764251  0.36660366  0.04755124    -0.78600
O214        O  0.99825161  0.44820818  0.02933731    -0.80100
O215        O  0.93988174  0.50127830  0.10246555    -0.79900
O216        O  0.87858784  0.46124634  0.10927582    -0.78500
Zn217      Zn  0.89244044  0.43289474  0.04185138     1.55700
O218        O  0.96017283  0.50781477  0.05771856    -0.79900
Cd219      Cd  0.92363579  0.45801643  0.10137174     1.59700
Cd220      Cd  0.95141682  0.40122441  0.06655303     1.59600
O221        O  0.93954151  0.43107012  0.13583013    -0.79900
O222        O  0.93045858  0.43981788  0.06131087    -1.90400
Cd223      Cd  0.95609584  0.46682465  0.03658471     1.59900
O224        O  0.95488139  0.39108168  0.11142357    -0.79800
O225        O  0.93585543  0.47433602  0.99540426    -0.78500
C226        C  0.90146061  0.36560273  0.03693769     0.84000
C227        C  0.85550418  0.45568921  0.09397287     0.83700
O228        O  0.89173481  0.45317610  0.00179767    -0.77400
C229        C  0.95248583  0.51796270  0.08310573     0.84500
O230        O  0.88622320  0.38928032  0.03422715    -0.77500
C231        C  0.94939598  0.40448921  0.13574498     0.84600
C232        C  0.00929423  0.42274780  0.03512541     0.85000
O233        O  0.99384823  0.40302719  0.04857106    -0.80000
C234        C  0.31004134  0.00657671  0.27608746     0.03300
C235        C  0.34141080  0.00519828  0.27555163     0.03300
C236        C  0.35636173  0.00717061  0.24799964    -0.17200
C237        C  0.34060541  0.01107511  0.22109697     0.03300
C238        C  0.30914871  0.01192971  0.22189337     0.03300
C239        C  0.29451408  0.01054268  0.24943351    -0.17200
H240        H  0.27037225  0.01118879  0.25002107     0.05300
H241        H  0.38036868  0.00518262  0.24751834     0.05300
O242        O  0.06174977  0.13805976  0.05312671    -0.77500
C243        C  0.98170526  0.08409825  0.03005550     0.83600
O244        O  0.04455286  0.07078430  0.13505029    -0.78600
O245        O  0.02668030  0.99789713  0.05475076    -0.80100
O246        O  0.09918123  0.05421543  0.00078389    -0.79900
O247        O  0.10363265  0.11669168  0.03839255    -0.78500
Zn248      Zn  0.03630129  0.10309981  0.06640163     1.55700
O249        O  0.05555032  0.03238815  0.99356111    -0.79900
Cd250      Cd  0.09645180  0.07210256  0.04281721     1.59700
Cd251      Cd  0.06266305  0.04587366  0.10068406     1.59600
O252        O  0.13098890  0.05671974  0.06925078    -0.79900
O253        O  0.05663007  0.06539981  0.06102181    -1.90400
Cd254      Cd  0.03309191  0.03891813  0.03401489     1.59900
O255        O  0.10751081  0.04235499  0.11054942    -0.79800
O256        O  0.99181132  0.05818284  0.02459924    -0.78500
C257        C  0.03313163  0.09664192  0.13448307     0.84000
C258        C  0.08847027  0.13980814  0.04376748     0.83700
O259        O  0.99676767  0.10283176  0.04497035    -0.77400
C260        C  0.08144842  0.03970176  0.98432480     0.84500
O261        O  0.02860966  0.11023956  0.11001161    -0.77500
C262        C  0.13136368  0.04724222  0.09603585     0.84600
C263        C  0.03223031  0.98755113  0.08066158     0.85000
O264        O  0.04493922  0.00353378  0.10033201    -0.80000
C265        C  0.97812195  0.27352347  0.34399911     0.03300
C266        C  0.97751176  0.27412004  0.31247703     0.03300
C267        C  0.98042951  0.24763361  0.29659826    -0.17200
C268        C  0.98492188  0.22051066  0.31116417     0.03300
C269        C  0.98654171  0.21970184  0.34265709     0.03300
C270        C  0.98317347  0.24630420  0.35878953    -0.17200
H271        H  0.98496650  0.24585861  0.38286693     0.05300
H272        H  0.97995868  0.24825136  0.27242057     0.05300
C273        C  0.26724292  0.30971235  0.98124912     0.03300
C274        C  0.26872154  0.34101216  0.98409907     0.03300
C275        C  0.24234524  0.35722736  0.98899443    -0.17200
C276        C  0.21502782  0.34273446  0.99369336     0.03300
C277        C  0.21407221  0.31147800  0.99290031     0.03300
C278        C  0.23997779  0.29543202  0.98646162    -0.17200
H279        H  0.23893557  0.27141777  0.98578230     0.05300
H280        H  0.24312621  0.38123047  0.98959832     0.05300
C281        C  0.14872865  0.25829806  0.98933491    -0.10800
C282        C  0.14362643  0.25331643  0.01979511     0.11700
C283        C  0.15878311  0.27083061  0.04106338    -0.02700
C284        C  0.18040748  0.29096557  0.03103899    -0.05400
C285        C  0.18682356  0.29463685  0.00065220    -0.16200
C286        C  0.16986478  0.27897048  0.97927160     0.02700
C287        C  0.12808878  0.22550246  0.02813683     0.12700
C288        C  0.15408493  0.26828534  0.07448089     0.63300
H289        H  0.19353892  0.30283568  0.04729956     0.12700
C290        C  0.17362039  0.28224463  0.94581609     0.55500
H291        H  0.13725553  0.24463080  0.97317318     0.08500
C292        C  0.09695906  0.22195985  0.02633009    -0.05300
C293        C  0.08469397  0.19367041  0.03168198    -0.06000
C294        C  0.10266036  0.16929652  0.03946102    -0.15600
C295        C  0.13369902  0.17377451  0.04375951    -0.01200
C296        C  0.14583018  0.20170940  0.03725219    -0.08700
C297        C  0.07698612  0.24823426  0.01990967     0.65500
H298        H  0.06097014  0.19035176  0.02950183     0.11000
C299        C  0.15419646  0.14972763  0.05583613     0.63900
H300        H  0.16958036  0.20523301  0.03894855     0.08300
F301        F  0.14653203  0.28965560  0.93331883    -0.19100
F302        F  0.18291216  0.25550266  0.93403652    -0.15300
F303        F  0.19384927  0.30387256  0.93777978    -0.18800
F304        F  0.17978103  0.25768531  0.08759359    -0.22200
F305        F  0.13084445  0.24972587  0.08217017    -0.23700
F306        F  0.14790724  0.29605964  0.08591511    -0.17700
F307        F  0.18148366  0.16110596  0.06426294    -0.20200
F308        F  0.15922229  0.12854964  0.03419235    -0.21300
F309        F  0.14164480  0.13656192  0.08077120    -0.18500
F310        F  0.04720732  0.24071202  0.02158246    -0.18600
F311        F  0.08263785  0.25926998  0.99168976    -0.22400
F312        F  0.08240575  0.27012686  0.04067372    -0.24000
C313        C  0.02459081  0.15467379  0.19542906    -0.10800
C314        C  0.01256526  0.13770580  0.21870127     0.11700
C315        C  0.00673200  0.10719601  0.21427218    -0.02700
C316        C  0.01364466  0.09458263  0.18638055    -0.05400
C317        C  0.02577159  0.11161024  0.16299665    -0.16200
C318        C  0.03193678  0.14215653  0.16777684     0.02700
C319        C  0.00512988  0.15354443  0.24671003     0.12700
C320        C  0.99336317  0.08814119  0.23884784     0.63300
H321        H  0.00932467  0.07129090  0.18248894     0.12700
C322        C  0.04717991  0.16146426  0.14442035     0.55500
H323        H  0.02822651  0.17810939  0.19924147     0.08500
C324        C  0.02742290  0.16401003  0.26626990    -0.05300
C325        C  0.01948824  0.18459287  0.28836019    -0.06000
C326        C  0.99001218  0.19404112  0.29221355    -0.15600
C327        C  0.96741687  0.18178342  0.27399139    -0.01200
C328        C  0.97554946  0.16212019  0.25119654    -0.08700
C329        C  0.05961041  0.15432942  0.26319920     0.65500
H330        H  0.03669717  0.19497681  0.30149523     0.11000
C331        C  0.93462460  0.18908715  0.27680548     0.63900
H332        H  0.95867373  0.15428514  0.23588930     0.08300
F333        F  0.05532643  0.18879203  0.15578557    -0.19100
F334        F  0.02819058  0.16646825  0.12074459    -0.15300
F335        F  0.07273079  0.14766208  0.13433547    -0.18800
F336        F  0.96529151  0.09830478  0.24597432    -0.22200
F337        F  0.01106587  0.08928283  0.26395874    -0.23700
F338        F  0.99085675  0.05876420  0.23035143    -0.17700
F339        F  0.92486023  0.20203864  0.25060668    -0.20200
F340        F  0.92826624  0.20807503  0.30000438    -0.21300
F341        F  0.91892405  0.16310477  0.28151865    -0.18500
F342        F  0.07678130  0.16431989  0.28669384    -0.18600
F343        F  0.07162431  0.16542064  0.23708644    -0.22400
F344        F  0.06125995  0.12372806  0.26283753    -0.24000
C345        C  0.19533687  0.04903857  0.15143457    -0.10800
C346        C  0.21666498  0.03179610  0.13669872     0.11700
C347        C  0.20983542  0.01921623  0.10865172    -0.02700
C348        C  0.18193200  0.02534117  0.09577631    -0.05400
C349        C  0.16038132  0.04219624  0.11078613    -0.16200
C350        C  0.16715137  0.05440934  0.13908858     0.02700
C351        C  0.24437586  0.02478738  0.15326141     0.12700
C352        C  0.23156925  0.99888259  0.09279299     0.63300
H353        H  0.17630840  0.01619088  0.07422047     0.12700
C354        C  0.14493539  0.07323799  0.15619495     0.55500
H355        H  0.20078798  0.05765389  0.17327315     0.08500
C356        C  0.26786824  0.04548195  0.15655667    -0.05300
C357        C  0.29044781  0.03931262  0.17741538    -0.06000
C358        C  0.29023665  0.01329646  0.19469358    -0.15600
C359        C  0.26815025  0.99149076  0.18917858    -0.01200
C360        C  0.24511647  0.99815990  0.16931818    -0.08700
C361        C  0.26833252  0.07434597  0.13902187     0.65500
H362        H  0.30764231  0.05595180  0.18182808     0.11000
C363        C  0.26713869  0.96144697  0.20455156     0.63900
H364        H  0.22678651  0.98245498  0.16683420     0.08300
F365        F  0.15753260  0.08594969  0.18122179    -0.19100
F366        F  0.12138117  0.05582736  0.16552486    -0.15300
F367        F  0.13448237  0.09591216  0.13819936    -0.18800
F368        F  0.23650040  0.97376829  0.10982092    -0.22200
F369        F  0.25826406  0.01333521  0.08825494    -0.23700
F370        F  0.22091447  0.98991802  0.06533358    -0.17700
F371        F  0.24408667  0.96111777  0.22497378    -0.20200
F372        F  0.29331769  0.95448384  0.21904141    -0.21300
F373        F  0.26211420  0.93959772  0.18357631    -0.18500
F374        F  0.29383271  0.09058357  0.14452872    -0.18600
F375        F  0.24417490  0.09161146  0.14670360    -0.22400
F376        F  0.26724594  0.06847118  0.10884348    -0.24000
C377        C  0.15081651  0.38406287  0.03088637    -0.10800
C378        C  0.13097183  0.38673396  0.00697007     0.11700
C379        C  0.14034644  0.37838956  0.97806342    -0.02700
C380        C  0.16845314  0.36499460  0.97462452    -0.05400
C381        C  0.18746229  0.36022805  0.99900437    -0.16200
C382        C  0.17888090  0.37069413  0.02757856     0.02700
C383        C  0.09978185  0.39596497  0.01342886     0.12700
C384        C  0.12066642  0.38362270  0.95110141     0.63300
H385        H  0.17564662  0.35761086  0.95284576     0.12700
C386        C  0.19774315  0.36799009  0.05548101     0.55500
H387        H  0.14368883  0.39128849  0.05279321     0.08500
C388        C  0.07862205  0.37538416  0.02419249    -0.05300
C389        C  0.04966769  0.38527129  0.03050025    -0.06000
C390        C  0.04075707  0.41501935  0.02641522    -0.15600
C391        C  0.06210653  0.43559617  0.01491663    -0.01200
C392        C  0.09136118  0.42559787  0.00906658    -0.08700
C393        C  0.08657962  0.34294418  0.02907701     0.65500
H394        H  0.03365574  0.36940799  0.03887857     0.11000
C395        C  0.05458039  0.46787671  0.00863616     0.63900
H396        H  0.10808893  0.44087032  0.00090617     0.08300
F397        F  0.18161816  0.35366979  0.07751230    -0.19100
F398        F  0.20497729  0.39609186  0.06535008    -0.15300
F399        F  0.22374319  0.35237094  0.05122941    -0.18800
F400        F  0.11540986  0.41366914  0.94785211    -0.22200
F401        F  0.09384528  0.36909418  0.95467000    -0.23700
F402        F  0.13375253  0.37352706  0.92510503    -0.17700
F403        F  0.07874578  0.48348768  0.99763698    -0.20200
F404        F  0.04548003  0.48162048  0.03460576    -0.21300
F405        F  0.03228414  0.46950375  0.98750545    -0.18500
F406        F  0.06226822  0.32651995  0.03834731    -0.18600
F407        F  0.10828135  0.34050884  0.05069553    -0.22400
F408        F  0.09700085  0.33070068  0.00286035    -0.24000
C409        C  0.99314116  0.33574121  0.25678190    -0.10800
C410        C  0.96419931  0.34498504  0.25004709     0.11700
C411        C  0.94007007  0.33382357  0.26705622    -0.02700
C412        C  0.94583112  0.31272073  0.28956261    -0.05400
C413        C  0.97459521  0.30193239  0.29484505    -0.16200
C414        C  0.99886332  0.31425539  0.27877816     0.02700
C415        C  0.95971728  0.36143346  0.22159839     0.12700
C416        C  0.90822774  0.34269926  0.26024594     0.63300
H417        H  0.92753391  0.30266771  0.30153414     0.12700
C418        C  0.03102223  0.30482556  0.28269691     0.55500
H419        H  0.01141155  0.34406997  0.24334577     0.08500
C420        C  0.96400155  0.39237202  0.21859290    -0.05300
C421        C  0.96046795  0.40551715  0.19021628    -0.06000
C422        C  0.95383740  0.38859434  0.16473272    -0.15600
C423        C  0.95028474  0.35729204  0.16791909    -0.01200
C424        C  0.95335372  0.34447975  0.19635735    -0.08700
C425        C  0.97253946  0.41127626  0.24513780     0.65500
H426        H  0.96331695  0.42923505  0.18765636     0.11000
C427        C  0.94298422  0.33710954  0.14184700     0.63900
H428        H  0.95113483  0.32070920  0.19923715     0.08300
F429        F  0.04792114  0.32945088  0.28971561    -0.19100
F430        F  0.04137369  0.29306042  0.25621219    -0.15300
F431        F  0.03512886  0.28394098  0.30490190    -0.18800
F432        F  0.90030820  0.33272219  0.23227569    -0.22200
F433        F  0.90539425  0.37317815  0.26100428    -0.23700
F434        F  0.88844300  0.33082619  0.28072537    -0.17700
F435        F  0.96674725  0.33641280  0.12228269    -0.20200
F436        F  0.91783768  0.34724867  0.12734156    -0.21300
F437        F  0.93747498  0.30822689  0.15090928    -0.18500
F438        F  0.97523966  0.44093147  0.23750465    -0.18600
F439        F  0.99946874  0.40184729  0.25648499    -0.22400
F440        F  0.95113502  0.40890583  0.26706525    -0.24000
C441        C  0.97963180  0.14309903  0.37854421    -0.10800
C442        C  0.00950670  0.13435665  0.37936396     0.11700
C443        C  0.03178812  0.15446877  0.36984245    -0.02700
C444        C  0.02327336  0.18314367  0.36067816    -0.05400
C445        C  0.99328893  0.19146645  0.35855892    -0.16200
C446        C  0.97100921  0.17135786  0.36834793     0.02700
C447        C  0.01642171  0.10334260  0.38856608     0.12700
C448        C  0.06418391  0.14522036  0.36788320     0.63300
H449        H  0.03997401  0.19892174  0.35350167     0.12700
C450        C  0.93798053  0.17803978  0.36840111     0.55500
H451        H  0.96273181  0.12739367  0.38555229     0.08500
C452        C  0.01999281  0.09499371  0.41876150    -0.05300
C453        C  0.02652023  0.06513555  0.42559100    -0.06000
C454        C  0.02882017  0.04324742  0.40333628    -0.15600
C455        C  0.02377643  0.05165725  0.37304359    -0.01200
C456        C  0.01787019  0.08165958  0.36636267    -0.08700
C457        C  0.01625402  0.11746135  0.44364631     0.65500
H458        H  0.02994717  0.05870027  0.44859717     0.11000
C459        C  0.02371949  0.02935067  0.34767639     0.63900
H460        H  0.01429805  0.08861750  0.34350839     0.08300
F461        F  0.93138462  0.20686116  0.36036317    -0.19100
F462        F  0.92674146  0.17328788  0.39674241    -0.15300
F463        F  0.92382185  0.15908017  0.34886101    -0.18800
F464        F  0.06710730  0.12207334  0.34797654    -0.22200
F465        F  0.07431428  0.13613582  0.39548159    -0.23700
F466        F  0.08214545  0.16823837  0.35813053    -0.17700
F467        F  0.00508761  0.00589560  0.35460459    -0.20200
F468        F  0.05221088  0.01898317  0.34274254    -0.21300
F469        F  0.01372326  0.04178442  0.32126440    -0.18500
F470        F  0.02134434  0.10499370  0.47141315    -0.18600
F471        F  0.98760134  0.12847545  0.44332612    -0.22400
F472        F  0.03593062  0.14069529  0.43986924    -0.24000
C473        C  0.25139288  0.01135059  0.33680660    -0.10800
C474        C  0.24791108  0.98122558  0.34387425     0.11700
C475        C  0.26796081  0.96024430  0.33178168    -0.02700
C476        C  0.28948746  0.97003564  0.31132381    -0.05400
C477        C  0.29214746  0.99999069  0.30313004    -0.16200
C478        C  0.27323401  0.02122507  0.31666690     0.02700
C479        C  0.22002466  0.97233212  0.35916109     0.12700
C480        C  0.26693921  0.92724642  0.33848755     0.63300
H481        H  0.30323942  0.95371063  0.30024043     0.12700
C482        C  0.27408936  0.05422982  0.31000305     0.55500
H483        H  0.23579037  0.02723959  0.34596461     0.08500
C484        C  0.21648847  0.97359245  0.39039825    -0.05300
C485        C  0.18867148  0.96614154  0.40281383    -0.06000
C486        C  0.16440180  0.95772144  0.38490499    -0.15600
C487        C  0.16847056  0.95568336  0.35346256    -0.01200
C488        C  0.19630707  0.96317153  0.34127446    -0.08700
C489        C  0.24215515  0.98254656  0.41031352     0.65500
H490        H  0.18554276  0.96742166  0.42670755     0.11000
C491        C  0.14400744  0.94531027  0.33258018     0.63900
H492        H  0.19978681  0.96237574  0.31738766     0.08300
F493        F  0.27863910  0.06950225  0.33628847    -0.19100
F494        F  0.24715201  0.06289530  0.29801332    -0.15300
F495        F  0.29629151  0.06221383  0.29030994    -0.18800
F496        F  0.25920757  0.91212097  0.31288721    -0.22200
F497        F  0.24698218  0.91987060  0.36074192    -0.23700
F498        F  0.29479860  0.91790789  0.34751377    -0.17700
F499        F  0.15454008  0.94042636  0.30399549    -0.20200
F500        F  0.12199558  0.96662880  0.33077754    -0.21300
F501        F  0.13203022  0.91891789  0.34286147    -0.18500
F502        F  0.23456544  0.98120126  0.44019968    -0.18600
F503        F  0.25074515  0.01128006  0.40377173    -0.22400
F504        F  0.26596692  0.96372895  0.40566419    -0.24000
C505        C  0.94756181  0.33946361  0.38723703    -0.10800
C506        C  0.97158247  0.35922907  0.38519500     0.11700
C507        C  0.99892542  0.34936850  0.37320560    -0.02700
C508        C  0.00046383  0.32070441  0.36103783    -0.05400
C509        C  0.97586226  0.30158677  0.36120051    -0.16200
C510        C  0.94930431  0.31049550  0.37562519     0.02700
C511        C  0.96692084  0.39066232  0.39405288     0.12700
C512        C  0.02632433  0.36902571  0.37344235     0.63300
H513        H  0.02085831  0.31308788  0.35089552     0.12700
C514        C  0.92293150  0.28966801  0.37849675     0.55500
H515        H  0.92713726  0.34728271  0.39728217     0.08500
C516        C  0.95543539  0.41169300  0.37373549    -0.05300
C517        C  0.95221779  0.44125607  0.38302325    -0.06000
C518        C  0.95928049  0.45062724  0.41219215    -0.15600
C519        C  0.97028875  0.42901461  0.43280430    -0.01200
C520        C  0.97399707  0.39942888  0.42310780    -0.08700
C521        C  0.94617204  0.40279700  0.34239652     0.65500
H522        H  0.94358990  0.45726447  0.36726533     0.11000
C523        C  0.97794186  0.43647623  0.46490997     0.63900
H524        H  0.98241200  0.38264230  0.43820235     0.08300
F525        F  0.91350290  0.28077903  0.35064322    -0.19100
F526        F  0.89920127  0.30300859  0.39283282    -0.15300
F527        F  0.93100062  0.26495042  0.39488101    -0.18800
F528        F  0.03397833  0.37528251  0.40257686    -0.22200
F529        F  0.02081995  0.39531335  0.35851795    -0.23700
F530        F  0.05037377  0.35544269  0.35990539    -0.17700
F531        F  0.95288881  0.44664318  0.47956306    -0.20200
F532        F  0.99995734  0.45786937  0.46556476    -0.21300
F533        F  0.98831418  0.41201549  0.48047368    -0.18500
F534        F  0.93608990  0.42681636  0.32599353    -0.18600
F535        F  0.92347702  0.38218764  0.34388653    -0.22400
F536        F  0.96994743  0.39052382  0.32731206    -0.24000
C537        C  0.77307185  0.53515183  0.38537977    -0.10800
C538        C  0.77507287  0.52116294  0.35770227     0.11700
C539        C  0.80304315  0.51239558  0.34653971    -0.02700
C540        C  0.82841287  0.51833604  0.36360004    -0.05400
C541        C  0.82705545  0.53368634  0.39094762    -0.16200
C542        C  0.79853078  0.54168376  0.40240766     0.02700
C543        C  0.74793630  0.51861768  0.33934729     0.12700
C544        C  0.80621918  0.49781588  0.31614552     0.63300
H545        H  0.84981336  0.51175592  0.35485933     0.12700
C546        C  0.79444360  0.55791185  0.43168570     0.55500
H547        H  0.75124237  0.54181799  0.39301465     0.08500
C548        C  0.72888260  0.49373740  0.34081376    -0.05300
C549        C  0.70663308  0.49081433  0.31899833    -0.06000
C550        C  0.70208695  0.51286482  0.29727145    -0.15600
C551        C  0.71871318  0.53954242  0.29861123    -0.01200
C552        C  0.74203015  0.54152368  0.31910968    -0.08700
C553        C  0.73201982  0.47073173  0.36537858     0.65500
H554        H  0.69326019  0.47092839  0.31822887     0.11000
C555        C  0.71322670  0.56624266  0.27870207     0.63900
H556        H  0.75613032  0.56103827  0.31907636     0.08300
F557        F  0.80646716  0.54149592  0.45479207    -0.19100
F558        F  0.76478706  0.56280937  0.43830876    -0.15300
F559        F  0.80815254  0.58518745  0.42991997    -0.18800
F560        F  0.79706321  0.51723800  0.29409836    -0.22200
F561        F  0.78905977  0.47244884  0.31488205    -0.23700
F562        F  0.83532288  0.48986390  0.31012953    -0.17700
F563        F  0.71246327  0.59164621  0.29589710    -0.20200
F564        F  0.68658984  0.56465401  0.26354947    -0.21300
F565        F  0.73616401  0.56872609  0.25833696    -0.18500
F566        F  0.71167003  0.44793012  0.36230262    -0.18600
F567        F  0.72720209  0.48408260  0.39265712    -0.22400
F568        F  0.76019208  0.45856549  0.36511912    -0.24000
C569        C  0.73625776  0.50777304  0.15505885    -0.10800
C570        C  0.73973413  0.47831450  0.14591437     0.11700
C571        C  0.71975378  0.45637918  0.15654912    -0.02700
C572        C  0.69852998  0.46442211  0.17815144    -0.05400
C573        C  0.69695065  0.49342042  0.18930426    -0.16200
C574        C  0.71483397  0.51589413  0.17624191     0.02700
C575        C  0.76807897  0.47052738  0.13088603     0.12700
C576        C  0.72163436  0.42443474  0.14609297     0.63300
H577        H  0.68441656  0.44763046  0.18810372     0.12700
C578        C  0.71301304  0.54849271  0.18420698     0.55500
H579        H  0.75162891  0.52442703  0.14680423     0.08500
C580        C  0.77367270  0.47586497  0.10030178    -0.05300
C581        C  0.80235379  0.47009967  0.08899306    -0.06000
C582        C  0.82563871  0.46032769  0.10751859    -0.15600
C583        C  0.81975729  0.45490513  0.13825156    -0.01200
C584        C  0.79103253  0.46024894  0.14923546    -0.08700
C585        C  0.74979669  0.48836275  0.07997477     0.65500
H586        H  0.80709377  0.47419754  0.06566803     0.11000
C587        C  0.84327430  0.44327086  0.15964666     0.63900
H588        H  0.78627440  0.45709512  0.17272017     0.08300
F589        F  0.70853403  0.56490353  0.15848794    -0.19100
F590        F  0.73950667  0.55724228  0.19700799    -0.15300
F591        F  0.69010139  0.55491192  0.20361037    -0.18800
F592        F  0.74856360  0.41216987  0.15422418    -0.22200
F593        F  0.71893548  0.42337212  0.11545880    -0.23700
F594        F  0.69925742  0.40713782  0.15829730    -0.17700
F595        F  0.83123072  0.43532457  0.18696171    -0.20200
F596        F  0.86436263  0.46496622  0.16473816    -0.21300
F597        F  0.85678207  0.41837023  0.14785185    -0.18500
F598        F  0.75918651  0.48971907  0.05059844    -0.18600
F599        F  0.74242752  0.51672291  0.08890887    -0.22400
F600        F  0.72472402  0.47075709  0.08114026    -0.24000
C601        C  0.15030838  0.61043900  0.46758019    -0.10800
C602        C  0.12977135  0.61275833  0.49093797     0.11700
C603        C  0.13885558  0.62436172  0.51868941    -0.02700
C604        C  0.16794626  0.63536142  0.52132347    -0.05400
C605        C  0.18772863  0.63560006  0.49706747    -0.16200
C606        C  0.17928265  0.62173744  0.46999202     0.02700
C607        C  0.09852889  0.60430372  0.48493970     0.12700
C608        C  0.11776756  0.62559945  0.54512200     0.63300
H609        H  0.17521952  0.64497364  0.54215341     0.12700
C610        C  0.19897913  0.61860932  0.44268564     0.55500
H611        H  0.14318474  0.60068222  0.44671152     0.08500
C612        C  0.07865549  0.62432090  0.47122524    -0.05300
C613        C  0.04950776  0.61488785  0.46556397    -0.06000
C614        C  0.03967170  0.58581322  0.47206010    -0.15600
C615        C  0.06008622  0.56558578  0.48556180    -0.01200
C616        C  0.08917349  0.57546602  0.49185088    -0.08700
C617        C  0.08846745  0.65529443  0.46174334     0.65500
H618        H  0.03427789  0.63040508  0.45532798     0.11000
C619        C  0.05196249  0.53366080  0.49297386     0.63900
H620        H  0.10518681  0.56061728  0.50196353     0.08300
F621        F  0.18610897  0.63351217  0.41900110    -0.19100
F622        F  0.20128662  0.58889412  0.43546582    -0.15300
F623        F  0.22733109  0.62947161  0.44653567    -0.18800
F624        F  0.10872364  0.59723266  0.55258618    -0.22200
F625        F  0.09308028  0.64243292  0.53810781    -0.23700
F626        F  0.13108696  0.63804942  0.56990293    -0.17700
F627        F  0.04309683  0.51910700  0.46739488    -0.20200
F628        F  0.02931673  0.53307552  0.51384303    -0.21300
F629        F  0.07573442  0.51810902  0.50480794    -0.18500
F630        F  0.06522309  0.67167787  0.45001310    -0.18600
F631        F  0.11026210  0.65321724  0.44011509    -0.22400
F632        F  0.09967282  0.67065978  0.48583382    -0.24000
C633        C  0.09951996  0.77743362  0.47959489    -0.10800
C634        C  0.12949080  0.77685546  0.48774882     0.11700
C635        C  0.14537805  0.80374588  0.49057888    -0.02700
C636        C  0.13095109  0.83044509  0.48347939    -0.05400
C637        C  0.10124058  0.83136391  0.47351869    -0.16200
C638        C  0.08475242  0.80426149  0.47287005     0.02700
C639        C  0.14495246  0.74790484  0.49006904     0.12700
C640        C  0.17782094  0.80420190  0.50022716     0.63300
H641        H  0.14344098  0.85088561  0.48482757     0.12700
C642        C  0.05194915  0.80302664  0.46502639     0.55500
H643        H  0.08803023  0.75642627  0.47767254     0.08500
C644        C  0.14682594  0.73171843  0.51703240    -0.05300
C645        C  0.16818911  0.70901149  0.51928357    -0.06000
C646        C  0.18672962  0.70172848  0.49515401    -0.15600
C647        C  0.18241082  0.71598147  0.46724295    -0.01200
C648        C  0.16110456  0.73853487  0.46515914    -0.08700
C649        C  0.12678852  0.73884569  0.54326269     0.65500
H650        H  0.17187723  0.69810984  0.54048749     0.11000
C651        C  0.20059625  0.70989787  0.43939976     0.63900
H652        H  0.15872756  0.75064089  0.44435432     0.08300
F653        F  0.03609785  0.82179482  0.48348290    -0.19100
F654        F  0.04031086  0.77480096  0.46861868    -0.15300
F655        F  0.04792149  0.81121761  0.43558774    -0.18800
F656        F  0.19526918  0.79019001  0.47918540    -0.22200
F657        F  0.18101591  0.78980769  0.52727747    -0.23700
F658        F  0.18842309  0.83282149  0.50354326    -0.17700
F659        F  0.18174231  0.70106149  0.41679614    -0.20200
F660        F  0.22179566  0.68815890  0.44320684    -0.21300
F661        F  0.21491766  0.73565251  0.43064833    -0.18500
F662        F  0.13202885  0.72016610  0.56724814    -0.18600
F663        F  0.09745285  0.73550569  0.53483918    -0.22400
F664        F  0.13127187  0.76770104  0.55250195    -0.24000
C665        C  0.02283944  0.84428731  0.11621024    -0.10800
C666        C  0.00208101  0.86740295  0.11811137     0.11700
C667        C  0.97343322  0.86177547  0.12988668    -0.02700
C668        C  0.96706003  0.83327638  0.14096784    -0.05400
C669        C  0.98822381  0.81042998  0.14029339    -0.16200
C670        C  0.01640083  0.81565884  0.12711621     0.02700
C671        C  0.01110695  0.89756349  0.10822770     0.12700
C672        C  0.94987060  0.88588792  0.13099573     0.63300
H673        H  0.94557849  0.82867490  0.15078567     0.12700
C674        C  0.03959718  0.79129189  0.12464673     0.55500
H675        H  0.04430808  0.84903306  0.10636692     0.08500
C676        C  0.02708347  0.91678723  0.12708855    -0.05300
C677        C  0.03331443  0.94569163  0.11703946    -0.06000
C678        C  0.02434127  0.95610025  0.08869391    -0.15600
C679        C  0.00874853  0.93619244  0.06953422    -0.01200
C680        C  0.00272289  0.90718705  0.07977997    -0.08700
C681        C  0.03757722  0.90669218  0.15771216     0.65500
H682        H  0.04552005  0.96037508  0.13157633     0.11000
C683        C  0.99799880  0.94497855  0.03860872     0.63900
H684        H  0.99088772  0.89165285  0.06579036     0.08300
F685        F  0.04424546  0.77797459  0.15203789    -0.19100
F686        F  0.06660591  0.80218815  0.11466772    -0.15300
F687        F  0.03007202  0.77011400  0.10464694    -0.18800
F688        F  0.94301715  0.89502844  0.10238059    -0.22200
F689        F  0.96017221  0.90990943  0.14701033    -0.23700
F690        F  0.92394661  0.87601589  0.14438737    -0.17700
F691        F  0.02198390  0.95228889  0.02071831    -0.20200
F692        F  0.97878423  0.96883024  0.04064840    -0.21300
F693        F  0.98282808  0.92217376  0.02471990    -0.18500
F694        F  0.05136465  0.92932639  0.17321197    -0.18600
F695        F  0.05770927  0.88375485  0.15468178    -0.22400
F696        F  0.01372213  0.89693815  0.17453005    -0.24000
C697        C  0.93843484  0.65903747  0.11978132    -0.10800
C698        C  0.96453417  0.64238646  0.11648811     0.11700
C699        C  0.99237143  0.65603361  0.12171798    -0.02700
C700        C  0.99292762  0.68528396  0.13262986    -0.05400
C701        C  0.96668006  0.70118090  0.13808189    -0.16200
C702        C  0.93901630  0.68853345  0.12990263     0.02700
C703        C  0.96195385  0.61050597  0.10821596     0.12700
C704        C  0.02126784  0.63959485  0.11616062     0.63300
H705        H  0.01390665  0.69564590  0.13817332     0.12700
C706        C  0.90963244  0.70491924  0.13107839     0.55500
H707        H  0.91729062  0.64873960  0.11462571     0.08500
C708        C  0.95694865  0.58823368  0.12989366    -0.05300
C709        C  0.95532874  0.55843115  0.12075752    -0.06000
C710        C  0.95737508  0.55011548  0.09053021    -0.15600
C711        C  0.96162585  0.57289888  0.06867028    -0.01200
C712        C  0.96409479  0.60264025  0.07814339    -0.08700
C713        C  0.95255495  0.59613196  0.16249745     0.65500
H714        H  0.95174170  0.54136285  0.13739507     0.11000
C715        C  0.96273177  0.56652405  0.03541414     0.63900
H716        H  0.96748361  0.62028247  0.06205394     0.08300
F717        F  0.89144317  0.69173703  0.15215976    -0.19100
F718        F  0.89595749  0.70312950  0.10353940    -0.15300
F719        F  0.91272169  0.73460974  0.13783403    -0.18800
F720        F  0.02329917  0.63215297  0.08636683    -0.22200
F721        F  0.02227165  0.61400281  0.13317339    -0.23700
F722        F  0.04577488  0.65669049  0.12331078    -0.17700
F723        F  0.96479624  0.59224330  0.01857430    -0.20200
F724        F  0.93711614  0.55194398  0.02677897    -0.21300
F725        F  0.98732114  0.54932162  0.02891201    -0.18500
F726        F  0.94996298  0.57117515  0.18037459    -0.18600
F727        F  0.92695122  0.61275668  0.16567414    -0.22400
F728        F  0.97641706  0.61247547  0.17256488    -0.24000
C729        C  0.93568192  0.67869820  0.24635373    -0.10800
C730        C  0.95985205  0.65968587  0.25069898     0.11700
C731        C  0.98334828  0.65936787  0.22979049    -0.02700
C732        C  0.98380798  0.68126409  0.20733515    -0.05400
C733        C  0.96078038  0.70216764  0.20453722    -0.16200
C734        C  0.93549591  0.69981746  0.22336415     0.02700
C735        C  0.96026657  0.64148467  0.27824004     0.12700
C736        C  0.00786276  0.63630455  0.23158716     0.63300
H737        H  0.00308073  0.68333659  0.19305997     0.12700
C738        C  0.90814471  0.71935659  0.22098723     0.55500
H739        H  0.91719706  0.67778273  0.26187238     0.08500
C740        C  0.97140045  0.65288115  0.30530104    -0.05300
C741        C  0.96912872  0.63536738  0.33116211    -0.06000
C742        C  0.95485103  0.60749053  0.33130168    -0.15600
C743        C  0.94365615  0.59619541  0.30377042    -0.01200
C744        C  0.94690924  0.61350422  0.27772340    -0.08700
C745        C  0.98443414  0.68399956  0.30712830     0.65500
H746        H  0.97769645  0.64406610  0.35188116     0.11000
C747        C  0.92748847  0.56667368  0.30143427     0.63900
H748        H  0.93821619  0.60577009  0.25663772     0.08300
F749        F  0.90512047  0.73570348  0.24682652    -0.19100
F750        F  0.88331210  0.70159253  0.21770970    -0.15300
F751        F  0.90903360  0.73868640  0.19710988    -0.18800
F752        F  0.99557409  0.60822102  0.23061557    -0.22200
F753        F  0.02347480  0.63921515  0.25788538    -0.23700
F754        F  0.02769820  0.63896853  0.20810784    -0.17700
F755        F  0.90234378  0.56698873  0.31921166    -0.20200
F756        F  0.94613197  0.54388730  0.31018443    -0.21300
F757        F  0.91844439  0.56078245  0.27256350    -0.18500
F758        F  0.99460400  0.69047029  0.33547594    -0.18600
F759        F  0.96296259  0.70467272  0.29977933    -0.22400
F760        F  0.00805386  0.68693790  0.28765173    -0.24000
C761        C  0.97070760  0.83901746  0.24920125    -0.10800
C762        C  0.00059075  0.84613214  0.25414317     0.11700
C763        C  0.02252767  0.83602095  0.23391293    -0.02700
C764        C  0.01383927  0.81738440  0.21036612    -0.05400
C765        C  0.98415534  0.80862742  0.20660082    -0.16200
C766        C  0.96196851  0.82098628  0.22530151     0.02700
C767        C  0.00860481  0.86074170  0.28266784     0.12700
C768        C  0.05513846  0.84365289  0.23807737     0.63300
H769        H  0.03055405  0.80775317  0.19606308     0.12700
C770        C  0.92896964  0.81532653  0.22157838     0.55500
H771        H  0.95405091  0.84688098  0.26478052     0.08500
C772        C  0.00636286  0.89168105  0.28708492    -0.05300
C773        C  0.01546636  0.90351339  0.31460845    -0.06000
C774        C  0.02569803  0.88535519  0.33804513    -0.15600
C775        C  0.02663431  0.85407270  0.33388242    -0.01200
C776        C  0.01800064  0.84246156  0.30614376    -0.08700
C777        C  0.99412241  0.91200710  0.26301171     0.65500
H778        H  0.01427867  0.92722028  0.31817523     0.11000
C779        C  0.03717948  0.83281775  0.35805351     0.63900
H780        H  0.01860225  0.81875428  0.30235369     0.08300
F781        F  0.91414871  0.84218975  0.22057780    -0.19100
F782        F  0.91863479  0.79917120  0.24570313    -0.15300
F783        F  0.92223561  0.80016438  0.19575671    -0.18800
F784        F  0.06556932  0.83115140  0.26421010    -0.22200
F785        F  0.05867665  0.87405679  0.23939760    -0.23700
F786        F  0.07242834  0.83323255  0.21481679    -0.17700
F787        F  0.01725165  0.83284892  0.38154342    -0.20200
F788        F  0.06498453  0.84121711  0.36805146    -0.21300
F789        F  0.03933102  0.80396383  0.34780058    -0.18500
F790        F  0.99432840  0.94142693  0.27173971    -0.18600
F791        F  0.96511150  0.90424942  0.25668739    -0.22400
F792        F  0.01098396  0.90960251  0.23739849    -0.24000
C793        C  0.11496770  0.98792421  0.85026786    -0.10800
C794        C  0.11402214  0.01699503  0.86114266     0.11700
C795        C  0.12305380  0.04080601  0.84256385    -0.02700
C796        C  0.13292553  0.03451659  0.81349984    -0.05400
C797        C  0.13567628  0.00527335  0.80329984    -0.16200
C798        C  0.12541463  0.98155363  0.82146406     0.02700
C799        C  0.10498763  0.02160938  0.89263654     0.12700
C800        C  0.12426804  0.07243163  0.85402465     0.63300
H801        H  0.14048128  0.05232342  0.79910871     0.12700
C802        C  0.12496901  0.94927561  0.81200208     0.55500
H803        H  0.10791597  0.96989204  0.86469916     0.08500
C804        C  0.07488834  0.02369383  0.90140326    -0.05300
C805        C  0.06825942  0.02900585  0.93161293    -0.06000
C806        C  0.09070131  0.03218881  0.95322498    -0.15600
C807        C  0.12098498  0.02888454  0.94432918    -0.01200
C808        C  0.12740435  0.02358700  0.91409104    -0.08700
C809        C  0.04996595  0.02042885  0.87885732     0.65500
H810        H  0.04530571  0.03129710  0.93845343     0.11000
C811        C  0.14668927  0.03053110  0.96624998     0.63900
H812        H  0.15021969  0.02137987  0.90669306     0.08300
F813        F  0.09640053  0.93833794  0.81504736    -0.19100
F814        F  0.14364998  0.93309740  0.83031559    -0.15300
F815        F  0.13359553  0.94501999  0.78278393    -0.18800
F816        F  0.14645208  0.07473758  0.87516196    -0.22200
F817        F  0.09746176  0.08027098  0.86681202    -0.23700
F818        F  0.13028719  0.09250236  0.83137841    -0.17700
F819        F  0.17329175  0.02190316  0.95337789    -0.20200
F820        F  0.14138308  0.01190865  0.99025201    -0.21300
F821        F  0.15015700  0.05934592  0.97610782    -0.18500
F822        F  0.02229369  0.02419822  0.89180735    -0.18600
F823        F  0.05089995  0.99244163  0.86643297    -0.22400
F824        F  0.05302279  0.04134642  0.85646458    -0.24000
C825        C  0.13351694  0.98543279  0.57882230    -0.10800
C826        C  0.11148037  0.98548328  0.60088464     0.11700
C827        C  0.08130999  0.98265792  0.59276617    -0.02700
C828        C  0.07432602  0.97728512  0.56274732    -0.05400
C829        C  0.09648187  0.97503451  0.54071041    -0.16200
C830        C  0.12664428  0.98037747  0.54866443     0.02700
C831        C  0.12081776  0.98721998  0.63250348     0.12700
C832        C  0.05669841  0.98501391  0.61583465     0.63300
H833        H  0.05138237  0.97382395  0.55646267     0.12700
C834        C  0.15160842  0.98109946  0.52578657     0.55500
H835        H  0.15639394  0.98843043  0.58566871     0.08500
C836        C  0.13011236  0.96166601  0.64836110    -0.05300
C837        C  0.13870772  0.96473500  0.67823866    -0.06000
C838        C  0.13922108  0.99247356  0.69224774    -0.15600
C839        C  0.12930329  0.01795531  0.67661707    -0.01200
C840        C  0.12040701  0.01486373  0.64671517    -0.08700
C841        C  0.13196037  0.93148816  0.63349024     0.65500
H842        H  0.14640821  0.94560456  0.69061040     0.11000
C843        C  0.12820349  0.04818178  0.69138505     0.63900
H844        H  0.11315993  0.03403023  0.63405625     0.08300
F845        F  0.15769414  0.95270897  0.51597356    -0.19100
F846        F  0.17754186  0.99262509  0.53762392    -0.15300
F847        F  0.14358556  0.99877643  0.50184735    -0.18800
F848        F  0.05727110  0.01284889  0.62862394    -0.22200
F849        F  0.06054290  0.96382910  0.63784052    -0.23700
F850        F  0.02890430  0.98090255  0.60335503    -0.17700
F851        F  0.11961329  0.07019205  0.67160695    -0.20200
F852        F  0.15583868  0.05561557  0.70247578    -0.21300
F853        F  0.10790891  0.04759503  0.71452574    -0.18500
F854        F  0.13973248  0.90937432  0.65350200    -0.18600
F855        F  0.15319896  0.93221504  0.61121079    -0.22400
F856        F  0.10482648  0.92405335  0.62122733    -0.24000
C857        C  0.91375884  0.12886299  0.00593496    -0.10800
C858        C  0.89135956  0.10743001  0.00814827     0.11700
C859        C  0.89913272  0.07740407  0.01298590    -0.02700
C860        C  0.92905426  0.07043553  0.01929526    -0.05400
C861        C  0.95130012  0.09242493  0.01975371    -0.16200
C862        C  0.94376215  0.12185758  0.01109807     0.02700
C863        C  0.86001905  0.11775894  0.00640289     0.12700
C864        C  0.87599655  0.05297982  0.01094526     0.63300
H865        H  0.93513411  0.04780130  0.02463971     0.12700
C866        C  0.96701636  0.14594690  0.00695704     0.55500
H867        H  0.90735276  0.15153323  0.00106951     0.08500
C868        C  0.84474797  0.12800789  0.03201749    -0.05300
C869        C  0.81604890  0.13992185  0.02865437    -0.06000
C870        C  0.80298579  0.14348717  0.00049710    -0.15600
C871        C  0.81877115  0.13421913  0.97470119    -0.01200
C872        C  0.84673290  0.12066953  0.97829999    -0.08700
C873        C  0.85931544  0.12771342  0.06256294     0.65500
H874        H  0.80391771  0.14766351  0.04797953     0.11000
C875        C  0.80814913  0.13915865  0.94292671     0.63900
H876        H  0.85903827  0.11359302  0.95877403     0.08300
F877        F  0.97639311  0.15605055  0.03442896    -0.19100
F878        F  0.95583009  0.16988394  0.99113519    -0.15300
F879        F  0.99104263  0.13499343  0.99117288    -0.18800
F880        F  0.86372861  0.05303738  0.98270866    -0.22200
F881        F  0.85365540  0.05743240  0.03159631    -0.23700
F882        F  0.88821790  0.02525683  0.01608453    -0.17700
F883        F  0.83010026  0.15369802  0.92691390    -0.20200
F884        F  0.78262268  0.15603195  0.94098878    -0.21300
F885        F  0.80280057  0.11201534  0.92975926    -0.18500
F886        F  0.84027940  0.13786001  0.08453763    -0.18600
F887        F  0.88407317  0.14585602  0.06221555    -0.22400
F888        F  0.86792140  0.09926871  0.07012953    -0.24000
C889        C  0.81877944  0.24876694  0.03869994    -0.10800
C890        C  0.83737527  0.25616069  0.01476275     0.11700
C891        C  0.83826408  0.23771296  0.98933493    -0.02700
C892        C  0.81751331  0.21443875  0.98719169    -0.05400
C893        C  0.79719570  0.20854985  0.01025011    -0.16200
C894        C  0.79906742  0.22477181  0.03719425     0.02700
C895        C  0.85478578  0.28398800  0.01695866     0.12700
C896        C  0.86071382  0.24290124  0.96459902     0.63300
H897        H  0.81606241  0.20158164  0.96692737     0.12700
C898        C  0.78032951  0.21828088  0.06460709     0.55500
H899        H  0.81920944  0.26237743  0.05858719     0.08500
C900        C  0.84181442  0.31187033  0.01082484    -0.05300
C901        C  0.85844100  0.33762955  0.01644271    -0.06000
C902        C  0.88744053  0.33659050  0.02837557    -0.15600
C903        C  0.90081968  0.30821192  0.03311519    -0.01200
C904        C  0.88392151  0.28248556  0.02757645    -0.08700
C905        C  0.81019282  0.31439728  0.99910532     0.65500
H906        H  0.84826079  0.35897284  0.01227607     0.11000
C907        C  0.93242395  0.30445336  0.04434572     0.63900
H908        H  0.89304240  0.26073742  0.03222118     0.08300
F909        F  0.76013345  0.24101509  0.06863642    -0.19100
F910        F  0.79853925  0.21667360  0.08937392    -0.15300
F911        F  0.76509308  0.19174779  0.06278307    -0.18800
F912        F  0.88912966  0.24024522  0.97594097    -0.22200
F913        F  0.85723679  0.27098098  0.95266457    -0.23700
F914        F  0.85762515  0.22250528  0.94182295    -0.17700
F915        F  0.94088713  0.27495081  0.04557089    -0.20200
F916        F  0.93477624  0.31579435  0.07279539    -0.21300
F917        F  0.95196314  0.31891842  0.02541360    -0.18500
F918        F  0.80244799  0.34349317  0.99295145    -0.18600
F919        F  0.79040985  0.30349225  0.02003876    -0.22400
F920        F  0.80727930  0.29833661  0.97309495    -0.24000
C921        C  0.41667530  0.01118922  0.09232934    -0.10800
C922        C  0.38959835  0.02260814  0.10254397     0.11700
C923        C  0.37168926  0.03954635  0.08306731    -0.02700
C924        C  0.38107761  0.04363603  0.05345686    -0.05400
C925        C  0.40811091  0.03201120  0.04258578    -0.16200
C926        C  0.42653174  0.01561146  0.06270984     0.02700
C927        C  0.38053215  0.01719318  0.13401443     0.12700
C928        C  0.34285160  0.05359022  0.09370440     0.63300
H929        H  0.36719541  0.05652970  0.03863393     0.12700
C930        C  0.45647210  0.00283403  0.05363426     0.55500
H931        H  0.43012980  0.99882141  0.10802864     0.08500
C932        C  0.36510314  0.99122184  0.14277746    -0.05300
C933        C  0.35348431  0.98953142  0.17189825    -0.06000
C934        C  0.35693996  0.01286943  0.19225606    -0.15600
C935        C  0.37377623  0.03819083  0.18392250    -0.01200
C936        C  0.38563257  0.03967122  0.15489190    -0.08700
C937        C  0.36068394  0.96565967  0.12129667     0.65500
H938        H  0.34085843  0.97025224  0.17883579     0.11000
C939        C  0.37819486  0.06409353  0.20503421     0.63900
H940        H  0.39802835  0.05902475  0.14774613     0.08300
F941        F  0.45287701  0.98332283  0.03019237    -0.19100
F942        F  0.46987634  0.98739730  0.07671281    -0.15300
F943        F  0.47548985  0.02553329  0.04536488    -0.18800
F944        F  0.34885029  0.07406777  0.11572912    -0.22200
F945        F  0.32406674  0.03205155  0.10501629    -0.23700
F946        F  0.32809497  0.06816910  0.07091916    -0.17700
F947        F  0.39511372  0.05526641  0.22913593    -0.20200
F948        F  0.35099838  0.07428708  0.21504652    -0.21300
F949        F  0.39271603  0.08753558  0.19131451    -0.18500
F950        F  0.34450474  0.94278764  0.13407769    -0.18600
F951        F  0.38801499  0.95450889  0.11281818    -0.22400
F952        F  0.34563257  0.97527056  0.09622737    -0.24000
C953        C  0.29845354  0.03240770  0.84304138    -0.10800
C954        C  0.27493349  0.02281117  0.86105755     0.11700
C955        C  0.27949110  0.01821861  0.89189362    -0.02700
C956        C  0.30769386  0.02455192  0.90392294    -0.05400
C957        C  0.33137098  0.03439057  0.88587687    -0.16200
C958        C  0.32662637  0.03856748  0.85476531     0.02700
C959        C  0.24666467  0.01586481  0.84574811     0.12700
C960        C  0.25483301  0.00639239  0.91177694     0.63300
H961        H  0.31163441  0.02131797  0.92751399     0.12700
C962        C  0.35072986  0.04983822  0.83373087     0.55500
H963        H  0.29445297  0.03480668  0.81934352     0.08500
C964        C  0.22764399  0.03848371  0.83500416    -0.05300
C965        C  0.20554123  0.03093944  0.81428799    -0.06000
C966        C  0.20182284  0.00170992  0.80428896    -0.15600
C967        C  0.21977271  0.97885192  0.81653017    -0.01200
C968        C  0.24208535  0.98647695  0.83689159    -0.08700
C969        C  0.23166017  0.07066173  0.84412825     0.65500
H970        H  0.19264473  0.04831791  0.80383952     0.11000
C971        C  0.21760083  0.94643192  0.80790649     0.63900
H972        H  0.25719806  0.96944365  0.84477699     0.08300
F973        F  0.36340386  0.07541062  0.84497851    -0.19100
F974        F  0.33960729  0.05656042  0.80574832    -0.15300
F975        F  0.37230119  0.02830312  0.83018985    -0.18800
F976        F  0.24633074  0.97852322  0.90231720    -0.22200
F977        F  0.23057086  0.02511641  0.91061736    -0.23700
F978        F  0.26377533  0.00408324  0.94120209    -0.17700
F979        F  0.24331494  0.93815339  0.79321405    -0.20200
F980        F  0.19368186  0.94039323  0.78975847    -0.21300
F981        F  0.21466358  0.92933771  0.83341229    -0.18500
F982        F  0.20950825  0.08863231  0.83260114    -0.18600
F983        F  0.25864237  0.08127272  0.83393826    -0.22400
F984        F  0.23078340  0.07293479  0.87481139    -0.24000
C985        C  0.38141816  0.21961197  0.94441507    -0.10800
C986        C  0.35626045  0.21961939  0.96292640     0.11700
C987        C  0.34757383  0.19302487  0.97730262    -0.02700
C988        C  0.36483226  0.16736735  0.97318964    -0.05400
C989        C  0.38969299  0.16672759  0.95403964    -0.16200
C990        C  0.39825405  0.19356278  0.93935672     0.02700
C991        C  0.33745694  0.24680671  0.96480248     0.12700
C992        C  0.31929910  0.19138897  0.99588654     0.63300
H993        H  0.35825345  0.14710724  0.98438425     0.12700
C994        C  0.42411899  0.19481653  0.91755760     0.55500
H995        H  0.38721852  0.24015079  0.93325896     0.08500
C996        C  0.34090673  0.26825081  0.98751500    -0.05300
C997        C  0.31816114  0.28942394  0.99181117    -0.06000
C998        C  0.29338773  0.29093578  0.97274772    -0.15600
C999        C  0.29261331  0.27222143  0.94734783    -0.01200
C1000       C  0.31407455  0.24977800  0.94446929    -0.08700
C1001       C  0.36850068  0.26867714  0.00688185     0.65500
H1002       H  0.31913843  0.30426031  0.01066033     0.11000
C1003       C  0.26883392  0.27437097  0.92352399     0.63900
H1004       H  0.31219503  0.23384832  0.92652330     0.08300
F1005       F  0.45035028  0.18848923  0.93226447    -0.19100
F1006       F  0.42709360  0.22257402  0.90458379    -0.15300
F1007       F  0.41974862  0.17455211  0.89489436    -0.18800
F1008       F  0.29498012  0.19744119  0.97809938    -0.22200
F1009       F  0.32033337  0.21178156  0.01875885    -0.23700
F1010       F  0.31521756  0.16359055  0.00843742    -0.17700
F1011       F  0.28104455  0.26878565  0.89576619    -0.20200
F1012       F  0.25616786  0.30228661  0.92232869    -0.21300
F1013       F  0.24701475  0.25352858  0.92919050    -0.18500
F1014       F  0.36799036  0.29192942  0.02694406    -0.18600
F1015       F  0.39333539  0.27198703  0.98898461    -0.22400
F1016       F  0.37095909  0.24249049  0.02277368    -0.24000
C1017       C  0.59378928  0.07785155  0.98244464    -0.10800
C1018       C  0.60357246  0.10580834  0.97304995     0.11700
C1019       C  0.58376563  0.12508516  0.95817727    -0.02700
C1020       C  0.55440656  0.11563310  0.95335970    -0.05400
C1021       C  0.54398744  0.08766286  0.96306322    -0.16200
C1022       C  0.56421371  0.06840980  0.97828672     0.02700
C1023       C  0.63460794  0.11477707  0.97967536     0.12700
C1024       C  0.59366411  0.15561873  0.94754007     0.63300
H1025       H  0.53935924  0.13033250  0.94171262     0.12700
C1026       C  0.55519382  0.03823998  0.99063705     0.55500
H1027       H  0.60969992  0.06356592  0.99349646     0.08500
C1028       C  0.64276419  0.12607568  0.00787654    -0.05300
C1029       C  0.67160824  0.13733235  0.01156625    -0.06000
C1030       C  0.69218781  0.13788956  0.98803412    -0.15600
C1031       C  0.68469208  0.12470348  0.96041494    -0.01200
C1032       C  0.65584385  0.11314941  0.95680877    -0.08700
C1033       C  0.62084581  0.12700222  0.03366223     0.65500
H1034       H  0.67805606  0.14681656  0.03268331     0.11000
C1035       C  0.70670027  0.12327028  0.93474607     0.63900
H1036       H  0.64924510  0.10352141  0.93575073     0.08300
F1037       F  0.53179884  0.04148814  0.01039150    -0.19100
F1038       F  0.57814861  0.02458827  0.00594767    -0.15300
F1039       F  0.54704012  0.01965736  0.96759159    -0.18800
F1040       F  0.61558423  0.15278741  0.92613412    -0.22200
F1041       F  0.60474826  0.17171734  0.97121178    -0.23700
F1042       F  0.57048900  0.17159106  0.93513118    -0.17700
F1043       F  0.73003110  0.10483007  0.94229200    -0.20200
F1044       F  0.71763685  0.15120552  0.92830873    -0.21300
F1045       F  0.69375445  0.11223587  0.90910748    -0.18500
F1046       F  0.63316153  0.13969743  0.05883059    -0.18600
F1047       F  0.61203385  0.09853654  0.04101390    -0.22400
F1048       F  0.59614971  0.14345278  0.02577443    -0.24000
C1049       C  0.45737171  0.16705051  0.73544394    -0.10800
C1050       C  0.48125842  0.14952254  0.74474024     0.11700
C1051       C  0.50845608  0.15049483  0.72899293    -0.02700
C1052       C  0.51173722  0.17155486  0.70601476    -0.05400
C1053       C  0.48868605  0.19126717  0.69873917    -0.16200
C1054       C  0.46076423  0.18863887  0.71322686     0.02700
C1055       C  0.47793047  0.13341376  0.77329285     0.12700
C1056       C  0.53399188  0.13005782  0.73715621     0.63300
H1057       H  0.53299523  0.17419387  0.69499964     0.12700
C1058       C  0.43451181  0.20920649  0.70809815     0.55500
H1059       H  0.43650723  0.16560021  0.74750980     0.08500
C1060       C  0.48060533  0.14836440  0.80079075    -0.05300
C1061       C  0.47439991  0.13272362  0.82711188    -0.06000
C1062       C  0.46571086  0.10268942  0.82702926    -0.15600
C1063       C  0.46453263  0.08737600  0.79920233    -0.01200
C1064       C  0.47029054  0.10338246  0.77277793    -0.08700
C1065       C  0.48964904  0.18088685  0.80236989     0.65500
H1066       H  0.47568164  0.14439305  0.84809034     0.11000
C1067       C  0.45743744  0.05449798  0.79677490     0.63900
H1068       H  0.46837891  0.09273613  0.75126424     0.08300
F1069       F  0.42832344  0.22419222  0.73423373    -0.19100
F1070       F  0.40993984  0.19254571  0.70032936    -0.15300
F1071       F  0.43922325  0.22997287  0.68594169    -0.18800
F1072       F  0.52546898  0.10093240  0.73287741    -0.22200
F1073       F  0.54179084  0.13387553  0.76669020    -0.23700
F1074       F  0.55888914  0.13545219  0.71981198    -0.17700
F1075       F  0.42839328  0.04933093  0.80540287    -0.20200
F1076       F  0.47661880  0.03833344  0.81458787    -0.21300
F1077       F  0.46060555  0.04422598  0.76788540    -0.18500
F1078       F  0.49286555  0.19042664  0.83148588    -0.18600
F1079       F  0.46832645  0.19844977  0.78896608    -0.22400
F1080       F  0.51650398  0.18510070  0.78798498    -0.24000
C1081       C  0.36956951  0.98284252  0.41378795    -0.10800
C1082       C  0.39189303  0.98511812  0.39219124     0.11700
C1083       C  0.42202002  0.98331032  0.40089282    -0.02700
C1084       C  0.42870467  0.97630290  0.43082557    -0.05400
C1085       C  0.40625828  0.97206389  0.45237221    -0.16200
C1086       C  0.37605219  0.97681002  0.44387637     0.02700
C1087       C  0.38254056  0.98973303  0.36072009     0.12700
C1088       C  0.44686864  0.98912083  0.37869643     0.63300
H1089       H  0.45165458  0.97361917  0.43747008     0.12700
C1090       C  0.35048825  0.97627390  0.46612098     0.55500
H1091       H  0.34673028  0.98537072  0.40661912     0.08500
C1092       C  0.37424515  0.96573164  0.34222114    -0.05300
C1093       C  0.36305535  0.97185711  0.31355999    -0.06000
C1094       C  0.35856040  0.00102846  0.30354770    -0.15600
C1095       C  0.36777953  0.02503455  0.32174212    -0.01200
C1096       C  0.37940276  0.01885457  0.35018357    -0.08700
C1097       C  0.37581390  0.93388234  0.35327206     0.65500
H1098       H  0.35629431  0.95384886  0.29919556     0.11000
C1099       C  0.36578725  0.05745845  0.31276885     0.63900
H1100       H  0.38560016  0.03705531  0.36463489     0.08300
F1101       F  0.34493812  0.94749379  0.47531019    -0.19100
F1102       F  0.32450659  0.98732239  0.45386251    -0.15300
F1103       F  0.35739094  0.99368360  0.49047849    -0.18800
F1104       F  0.44436815  0.01764080  0.36756750    -0.22200
F1105       F  0.44522082  0.96931212  0.35534076    -0.23700
F1106       F  0.47460524  0.98632886  0.39169263    -0.17700
F1107       F  0.39357469  0.07031712  0.31529149    -0.20200
F1108       F  0.34642910  0.07189395  0.33178352    -0.21300
F1109       F  0.35622369  0.06171846  0.28385683    -0.18500
F1110       F  0.36784606  0.91390679  0.33132990    -0.18600
F1111       F  0.35666575  0.93010387  0.37710246    -0.22400
F1112       F  0.40435727  0.92716162  0.36231436    -0.24000
C1113       C  0.32306761  0.73766676  0.54918036    -0.10800
C1114       C  0.33436178  0.75228527  0.52401077     0.11700
C1115       C  0.32689144  0.74215278  0.49520557    -0.02700
C1116       C  0.30598524  0.71918312  0.49261333    -0.05400
C1117       C  0.29280750  0.70608387  0.51781365    -0.16200
C1118       C  0.30168683  0.71516764  0.54669872     0.02700
C1119       C  0.35134517  0.78001567  0.52860217     0.12700
C1120       C  0.34033609  0.75611015  0.46744043     0.63300
H1121       H  0.29862622  0.71218095  0.47076984     0.12700
C1122       C  0.28848861  0.70346372  0.57558734     0.55500
H1123       H  0.32945992  0.74541970  0.57111611     0.08500
C1124       C  0.33665165  0.80719809  0.53400944    -0.05300
C1125       C  0.35386410  0.83273885  0.53830156    -0.06000
C1126       C  0.38512096  0.83213561  0.53724751    -0.15600
C1127       C  0.39978034  0.80475700  0.53167723    -0.01200
C1128       C  0.38243967  0.77902307  0.52777771    -0.08700
C1129       C  0.30289140  0.80929853  0.53513443     0.65500
H1130       H  0.34281270  0.85356047  0.54285938     0.11000
C1131       C  0.43332164  0.80259632  0.52886676     0.63900
H1132       H  0.39298975  0.75779692  0.52391540     0.08300
F1133       F  0.27663044  0.72684611  0.59155787    -0.19100
F1134       F  0.31073089  0.69040854  0.59232949    -0.15300
F1135       F  0.26624873  0.68286883  0.57144376    -0.18800
F1136       F  0.37086608  0.75290979  0.46806153    -0.22200
F1137       F  0.33340175  0.78595099  0.46616515    -0.23700
F1138       F  0.32996125  0.74289652  0.44166847    -0.17700
F1139       F  0.44644497  0.80788783  0.55617906    -0.20200
F1140       F  0.44336626  0.82311603  0.50819327    -0.21300
F1141       F  0.44227390  0.77478776  0.51944336    -0.18500
F1142       F  0.29328701  0.83810080  0.53970298    -0.18600
F1143       F  0.29197833  0.79204481  0.55819432    -0.22400
F1144       F  0.29089983  0.79956218  0.50856837    -0.24000
C1145       C  0.23967359  0.95295996  0.67036869    -0.10800
C1146       C  0.24956814  0.97739859  0.65379906     0.11700
C1147       C  0.23455780  0.00485139  0.65613741    -0.02700
C1148       C  0.21188148  0.00765703  0.67758842    -0.05400
C1149       C  0.20404985  0.98389471  0.69633056    -0.16200
C1150       C  0.21725102  0.95569596  0.69188098     0.02700
C1151       C  0.27792818  0.97425762  0.63726830     0.12700
C1152       C  0.24329338  0.03119249  0.63687080     0.63300
H1153       H  0.20134773  0.02891156  0.68110307     0.12700
C1154       C  0.20973404  0.92810978  0.70988175     0.63500
H1155       H  0.25093319  0.93185747  0.66776617     0.08500
C1156       C  0.30543761  0.97552464  0.65232981    -0.05300
C1157       C  0.33160851  0.97067954  0.63608304    -0.06000
C1158       C  0.33140346  0.96409884  0.60538793    -0.15600
C1159       C  0.30353311  0.96367308  0.59013257    -0.01200
C1160       C  0.27727014  0.96863564  0.60662419    -0.08700
C1161       C  0.30714636  0.98112862  0.68573171     0.65500
H1162       H  0.35256315  0.97104835  0.64783304     0.11000
C1163       C  0.30092979  0.95807768  0.55682866     0.63900
H1164       H  0.25577856  0.96759094  0.59586307     0.08300
F1165       F  0.23420629  0.91997320  0.72661682    -0.19100
F1166       F  0.20282563  0.90524303  0.69062443    -0.15300
F1167       F  0.18587964  0.93183605  0.72888269    -0.18800
F1168       F  0.23949100  0.02414941  0.60715727    -0.22200
F1169       F  0.27272641  0.03848120  0.64171121    -0.23700
F1170       F  0.22613854  0.05591940  0.64299527    -0.17700
F1171       F  0.27208836  0.96168354  0.54673558    -0.20200
F1172       F  0.30947406  0.92933535  0.55041261    -0.21300
F1173       F  0.31863907  0.97792425  0.54133445    -0.18500
F1174       F  0.33615703  0.98447121  0.69534346    -0.18600
F1175       F  0.29485866  0.95747459  0.70107032    -0.22400
F1176       F  0.29185397  0.00671088  0.69292526    -0.24000
C1177       C  0.46346894  0.15224039  0.61067067    -0.10800
C1178       C  0.48767427  0.13273451  0.61156839     0.11700
C1179       C  0.51583447  0.14331647  0.62055749    -0.02700
C1180       C  0.51807182  0.17253561  0.63125644    -0.05400
C1181       C  0.49327263  0.19140758  0.63262181    -0.16200
C1182       C  0.46577320  0.18165715  0.62068277     0.02700
C1183       C  0.48254819  0.10113430  0.60378332     0.12700
C1184       C  0.54321152  0.12371100  0.61907028     0.63300
H1185       H  0.53910129  0.18065149  0.63963484     0.12700
C1186       C  0.43809477  0.20066429  0.61808729     0.55500
H1187       H  0.44226794  0.14413834  0.60261641     0.08500
C1188       C  0.47108891  0.08071737  0.62481306    -0.05300
C1189       C  0.46661660  0.05115948  0.61600838    -0.06000
C1190       C  0.47226234  0.04137994  0.58665639    -0.15600
C1191       C  0.48361870  0.06229283  0.56549915    -0.01200
C1192       C  0.48856852  0.09179118  0.57468310    -0.08700
C1193       C  0.46294072  0.09033408  0.65627423     0.65500
H1194       H  0.45794403  0.03554416  0.63218974     0.11000
C1195       C  0.49005777  0.05426859  0.53323311     0.63900
H1196       H  0.49693289  0.10814960  0.55905834     0.08300
F1197       F  0.41581248  0.18857951  0.63556352    -0.19100
F1198       F  0.42876336  0.20085998  0.58871858    -0.15300
F1199       F  0.44239998  0.22971056  0.62656073    -0.18800
F1200       F  0.54843051  0.11560821  0.58983629    -0.22200
F1201       F  0.53903672  0.09843988  0.63610325    -0.23700
F1202       F  0.56826667  0.13813294  0.62947466    -0.17700
F1203       F  0.50033741  0.07832158  0.51694561    -0.20200
F1204       F  0.46436415  0.04432839  0.51964261    -0.21300
F1205       F  0.51168780  0.03251361  0.53208894    -0.18500
F1206       F  0.45337379  0.06673713  0.67363897    -0.18600
F1207       F  0.44024451  0.11095553  0.65515949    -0.22400
F1208       F  0.48727776  0.10287988  0.67012247    -0.24000
C1209       C  0.33668420  0.61215341  0.53769070    -0.10800
C1210       C  0.35738784  0.62014136  0.51573169     0.11700
C1211       C  0.34815713  0.63717815  0.49091545    -0.02700
C1212       C  0.31841564  0.64655565  0.48958013    -0.05400
C1213       C  0.29813398  0.64053618  0.51269627    -0.16200
C1214       C  0.30721087  0.62242439  0.53702849     0.02700
C1215       C  0.38872737  0.61076368  0.51978378     0.12700
C1216       C  0.36973860  0.64588955  0.46631493     0.63300
H1217       H  0.31084672  0.65947714  0.47068874     0.12700
C1218       C  0.28774448  0.61361355  0.56330256     0.55500
H1219       H  0.34399278  0.59849583  0.55623589     0.08500
C1220       C  0.40806464  0.62602875  0.53917517    -0.05300
C1221       C  0.43728042  0.61562568  0.54239024    -0.06000
C1222       C  0.44789589  0.59040877  0.52713609    -0.15600
C1223       C  0.42823916  0.57517079  0.50758970    -0.01200
C1224       C  0.39887495  0.58567043  0.50450635    -0.08700
C1225       C  0.39783269  0.65306936  0.55665033     0.65500
H1226       H  0.45195325  0.62705977  0.55758357     0.11000
C1227       C  0.43777358  0.54818323  0.48980718     0.63900
H1228       H  0.38331753  0.57420725  0.49020959     0.08300
F1229       F  0.30054715  0.62382426  0.58933001    -0.19100
F1230       F  0.28601532  0.58301268  0.56471816    -0.15300
F1231       F  0.25921094  0.62459902  0.56189967    -0.18800
F1232       F  0.38041227  0.62075561  0.45240202    -0.22200
F1233       F  0.39333463  0.66152216  0.47814528    -0.23700
F1234       F  0.35638658  0.66358943  0.44490668    -0.17700
F1235       F  0.44325215  0.52467587  0.50890583    -0.20200
F1236       F  0.46311020  0.55467698  0.47354924    -0.21300
F1237       F  0.41607618  0.53930595  0.46989494    -0.18500
F1238       F  0.42070328  0.66548690  0.57301489    -0.18600
F1239       F  0.37554207  0.64510660  0.57632625    -0.22400
F1240       F  0.38716851  0.67455920  0.53739918    -0.24000
C1241       C  0.62360046  0.51007509  0.41621943    -0.10800
C1242       C  0.60348062  0.51396847  0.39278642     0.11700
C1243       C  0.57326627  0.51988091  0.39915449    -0.02700
C1244       C  0.56475962  0.52481738  0.42900084    -0.05400
C1245       C  0.58539415  0.52308034  0.45245694    -0.16200
C1246       C  0.61503287  0.51404019  0.44611318     0.02700
C1247       C  0.61487167  0.51175739  0.36175925     0.12700
C1248       C  0.55023132  0.52059480  0.37447222     0.63300
H1249       H  0.54201714  0.53074661  0.43414352     0.12700
C1250       C  0.63754619  0.50792626  0.47060177     0.55500
H1251       H  0.64638109  0.50447841  0.41078954     0.08500
C1252       C  0.62717242  0.53654411  0.34668981    -0.05300
C1253       C  0.63741688  0.53294048  0.31729427    -0.06000
C1254       C  0.63676205  0.50527751  0.30306976    -0.15600
C1255       C  0.62501477  0.48032315  0.31842928    -0.01200
C1256       C  0.61416841  0.48409251  0.34764463    -0.08700
C1257       C  0.63037308  0.56639231  0.36196490     0.65500
H1258       H  0.64697710  0.55157235  0.30540545     0.11000
C1259       C  0.62396832  0.44985291  0.30419218     0.63900
H1260       H  0.60500907  0.46542299  0.35982881     0.08300
F1261       F  0.66199514  0.49264745  0.45989814    -0.19100
F1262       F  0.62472089  0.49077903  0.49280738    -0.15300
F1263       F  0.64749015  0.53432925  0.48255145    -0.18800
F1264       F  0.54906823  0.49317636  0.36082438    -0.22200
F1265       F  0.55760143  0.54181846  0.35342252    -0.23700
F1266       F  0.52216611  0.52706901  0.38528092    -0.17700
F1267       F  0.61520829  0.42819418  0.32432497    -0.20200
F1268       F  0.65167774  0.44210555  0.29339634    -0.21300
F1269       F  0.60382507  0.45012593  0.28101467    -0.18500
F1270       F  0.64236013  0.58762559  0.34308684    -0.18600
F1271       F  0.64894752  0.56359248  0.38631951    -0.22400
F1272       F  0.60296349  0.57643741  0.37146403    -0.24000
C1273       C  0.53258131  0.34733441  0.62339406    -0.10800
C1274       C  0.50536203  0.36124684  0.61765179     0.11700
C1275       C  0.47866581  0.34476383  0.61988713    -0.02700
C1276       C  0.48021531  0.31514939  0.62992912    -0.05400
C1277       C  0.50746376  0.30175598  0.63720350    -0.16200
C1278       C  0.53421272  0.31770447  0.63276647     0.02700
C1279       C  0.50638559  0.39288254  0.60843316     0.12700
C1280       C  0.44884069  0.35835528  0.61190762     0.63300
H1281       H  0.46003281  0.30242716  0.63315583     0.12700
C1282       C  0.56496064  0.30489981  0.63749258     0.55500
H1283       H  0.55293330  0.35993879  0.62059181     0.08500
C1284       C  0.51020564  0.41586804  0.62943286    -0.05300
C1285       C  0.51573673  0.44481652  0.61897380    -0.06000
C1286       C  0.51865933  0.45136295  0.58834962    -0.15600
C1287       C  0.51445256  0.42810658  0.56731828    -0.01200
C1288       C  0.50811553  0.39931156  0.57792621    -0.08700
C1289       C  0.50954014  0.40959320  0.66277387     0.65500
H1290       H  0.51880357  0.46252052  0.63490854     0.11000
C1291       C  0.51816799  0.43285845  0.53395739     0.63900
H1292       H  0.50571240  0.38108276  0.56246322     0.08300
F1293       F  0.57822720  0.31903455  0.66131121    -0.19100
F1294       F  0.58195742  0.30980878  0.61223120    -0.15300
F1295       F  0.56472516  0.27474527  0.64281240    -0.18800
F1296       F  0.44896636  0.36710232  0.58235368    -0.22200
F1297       F  0.44330541  0.38277465  0.62956046    -0.23700
F1298       F  0.42574907  0.33842293  0.61592284    -0.17700
F1299       F  0.51588930  0.40657987  0.51824155    -0.20200
F1300       F  0.54589277  0.44478905  0.52806988    -0.21300
F1301       F  0.49631907  0.45176473  0.52353453    -0.18500
F1302       F  0.51202578  0.43529968  0.67935640    -0.18600
F1303       F  0.53283659  0.39114836  0.67048204    -0.22400
F1304       F  0.48312637  0.39598629  0.67047664    -0.24000
C1305       C  0.65605703  0.24244817  0.00922797    -0.10800
C1306       C  0.64790470  0.24888946  0.97978207     0.11700
C1307       C  0.65880831  0.23091699  0.95635552    -0.02700
C1308       C  0.67934852  0.20836360  0.96313938    -0.05400
C1309       C  0.68952088  0.20366038  0.99232092    -0.16200
C1310       C  0.67647911  0.21987287  0.01602957     0.02700
C1311       C  0.63211274  0.27726829  0.97387712     0.12700
C1312       C  0.65058694  0.23693157  0.92408954     0.63300
H1313       H  0.68960982  0.19600865  0.94525621     0.12700
C1314       C  0.68368853  0.21497455  0.04869810     0.55500
H1315       H  0.64754707  0.25626254  0.02705235     0.08500
C1316       C  0.60117145  0.28093377  0.97792924    -0.05300
C1317       C  0.58846124  0.30893146  0.97197927    -0.06000
C1318       C  0.60579739  0.33339751  0.96294573    -0.15600
C1319       C  0.63702054  0.32958071  0.95947997    -0.01200
C1320       C  0.64948084  0.30154699  0.96516770    -0.08700
C1321       C  0.58178750  0.25546755  0.98859888     0.65500
H1322       H  0.56476417  0.31202835  0.97474816     0.11000
C1323       C  0.65739133  0.35460809  0.94959332     0.63900
H1324       H  0.67323399  0.29825004  0.96304200     0.08300
F1325       F  0.65771850  0.20858261  0.06395990    -0.19100
F1326       F  0.69588746  0.24058121  0.06031883    -0.15300
F1327       F  0.70326159  0.19189578  0.05353851    -0.18800
F1328       F  0.66367195  0.26305170  0.91461201    -0.22200
F1329       F  0.62012114  0.23934363  0.92124864    -0.23700
F1330       F  0.66003847  0.21434390  0.90552438    -0.17700
F1331       F  0.68603280  0.34482314  0.94405469    -0.20200
F1332       F  0.65885967  0.37567776  0.97184448    -0.21300
F1333       F  0.64680722  0.36732514  0.92358138    -0.18500
F1334       F  0.55210498  0.26339426  0.98991965    -0.18600
F1335       F  0.59050134  0.24668089  0.01680254    -0.22400
F1336       F  0.58442714  0.23174793  0.96939243    -0.24000
C1337       C  0.52675599  0.38457905  0.77719630    -0.10800
C1338       C  0.51819126  0.35478185  0.77841305     0.11700
C1339       C  0.51292922  0.34109101  0.80633366    -0.02700
C1340       C  0.51796249  0.35751982  0.83236595    -0.05400
C1341       C  0.52783453  0.38721604  0.83157164    -0.16200
C1342       C  0.53099440  0.40145450  0.80323772     0.02700
C1343       C  0.51738679  0.33748373  0.75037445     0.12700
C1344       C  0.50253174  0.30901832  0.80868133     0.63300
H1345       H  0.51490996  0.34669473  0.85371099     0.12700
C1346       C  0.53861382  0.43414301  0.79989894     0.55500
H1347       H  0.53079024  0.39433754  0.75547169     0.08500
C1348       C  0.49293615  0.33804231  0.73061169    -0.05300
C1349       C  0.49220392  0.31741064  0.70712273    -0.06000
C1350       C  0.51485182  0.29629393  0.70332100    -0.15600
C1351       C  0.54012791  0.29706928  0.72227753    -0.01200
C1352       C  0.54119298  0.31835092  0.74489134    -0.08700
C1353       C  0.46722391  0.35932250  0.73518606     0.65500
H1354       H  0.47285906  0.31618288  0.69288600     0.11000
C1355       C  0.56590272  0.27529786  0.72119308     0.63900
H1356       H  0.56009069  0.31870802  0.75987617     0.08300
F1357       F  0.51877258  0.45099939  0.81622455    -0.19100
F1358       F  0.53687390  0.44356777  0.77054382    -0.15300
F1359       F  0.56729375  0.43927408  0.80962207    -0.18800
F1360       F  0.52455490  0.29011349  0.79876841    -0.22200
F1361       F  0.47733983  0.30493844  0.79159776    -0.23700
F1362       F  0.49565568  0.30113399  0.83773771    -0.17700
F1363       F  0.59224201  0.29084657  0.71820592    -0.20200
F1364       F  0.56425032  0.25534994  0.69802739    -0.21300
F1365       F  0.56672549  0.25943558  0.74763922    -0.18500
F1366       F  0.44555388  0.35592963  0.71359675    -0.18600
F1367       F  0.47735466  0.38822369  0.73383484    -0.22400
F1368       F  0.45429455  0.35439540  0.76272935    -0.24000
C1369       C  0.57137434  0.49250481  0.09213134    -0.10800
C1370       C  0.59818040  0.48106943  0.10297519     0.11700
C1371       C  0.61685511  0.46455967  0.08388854    -0.02700
C1372       C  0.60753396  0.45939007  0.05451453    -0.05400
C1373       C  0.58055479  0.47067989  0.04317728    -0.16200
C1374       C  0.56240534  0.48835377  0.06230861     0.02700
C1375       C  0.60669305  0.48703191  0.13434479     0.12700
C1376       C  0.64674696  0.45270182  0.09441323     0.63300
H1377       H  0.62155898  0.44615779  0.04018390     0.12700
C1378       C  0.53409725  0.50345962  0.05173637     0.55500
H1379       H  0.55758772  0.50500613  0.10737923     0.08500
C1380       C  0.62004672  0.51407740  0.14287275    -0.05300
C1381       C  0.63169642  0.51644118  0.17179433    -0.06000
C1382       C  0.63140684  0.49240946  0.19181602    -0.15600
C1383       C  0.61689623  0.46570147  0.18359837    -0.01200
C1384       C  0.60373634  0.46404291  0.15526075    -0.08700
C1385       C  0.62268669  0.53997809  0.12127490     0.65500
H1386       H  0.64234855  0.53680494  0.17864851     0.11000
C1387       C  0.61573753  0.43782677  0.20267834     0.63900
H1388       H  0.59290409  0.44365425  0.14852049     0.08300
F1389       F  0.52209035  0.52175137  0.07336357    -0.19100
F1390       F  0.51291569  0.48241194  0.04470049    -0.15300
F1391       F  0.54016550  0.52090667  0.02702794    -0.18800
F1392       F  0.64265085  0.43216789  0.11697859    -0.22200
F1393       F  0.66404696  0.47573316  0.10491473    -0.23700
F1394       F  0.66227004  0.43893835  0.07167482    -0.17700
F1395       F  0.58664024  0.43256722  0.21111866    -0.20200
F1396       F  0.63302176  0.43936957  0.22797368    -0.21300
F1397       F  0.62574477  0.41395078  0.18617885    -0.18500
F1398       F  0.63777158  0.56364961  0.13370383    -0.18600
F1399       F  0.59468212  0.54968346  0.11328532    -0.22400
F1400       F  0.63790709  0.53134755  0.09595897    -0.24000
C1401       C  0.40915500  0.36781863  0.98085282    -0.10800
C1402       C  0.38729122  0.38957538  0.97711206     0.11700
C1403       C  0.39571482  0.41946353  0.97270641    -0.02700
C1404       C  0.42605507  0.42607536  0.96884077    -0.05400
C1405       C  0.44805026  0.40389353  0.97016104    -0.16200
C1406       C  0.43955075  0.37440501  0.97779882     0.02700
C1407       C  0.35577621  0.37993297  0.97767819     0.12700
C1408       C  0.37278335  0.44416586  0.97242685     0.63300
H1409       H  0.43271805  0.44865598  0.96399072     0.12700
C1410       C  0.46207139  0.34982851  0.98302270     0.55500
H1411       H  0.40204867  0.34526779  0.98532362     0.08500
C1412       C  0.34171371  0.36824310  0.95204707    -0.05300
C1413       C  0.31260668  0.35714312  0.95470084    -0.06000
C1414       C  0.29763046  0.35688035  0.98214458    -0.15600
C1415       C  0.31165467  0.36891268  0.00772514    -0.01200
C1416       C  0.34065256  0.38025131  0.00495991    -0.08700
C1417       C  0.35775090  0.36675337  0.92226096     0.65500
H1418       H  0.30159930  0.34756903  0.93556479     0.11000
C1419       C  0.29651051  0.36900941  0.03800398     0.63900
H1420       H  0.35209544  0.38898069  0.02424883     0.08300
F1421       F  0.44925319  0.32540604  0.99675708    -0.19100
F1422       F  0.48463045  0.35984412  0.00132502    -0.15300
F1423       F  0.47384905  0.34063398  0.95612397    -0.18800
F1424       F  0.35864024  0.44523466  0.99977863    -0.22200
F1425       F  0.35187618  0.43917533  0.95049779    -0.23700
F1426       F  0.38562441  0.47159308  0.96713146    -0.17700
F1427       F  0.31533537  0.37875347  0.06028914    -0.20200
F1428       F  0.28723272  0.34068124  0.04541512    -0.21300
F1429       F  0.27229168  0.38779478  0.03728118    -0.18500
F1430       F  0.33980561  0.35523904  0.90010776    -0.18600
F1431       F  0.38253382  0.34882687  0.92472534    -0.22400
F1432       F  0.36657376  0.39481782  0.91349230    -0.24000
C1433       C  0.84412148  0.88389170  0.46585621    -0.10800
C1434       C  0.86233602  0.88376137  0.49124299     0.11700
C1435       C  0.85040007  0.87421840  0.51885910    -0.02700
C1436       C  0.82160562  0.86188264  0.51941410    -0.05400
C1437       C  0.80399531  0.86021635  0.49361226    -0.16200
C1438       C  0.81479997  0.87277483  0.46665869     0.02700
C1439       C  0.89415822  0.89260023  0.48780473     0.12700
C1440       C  0.86790135  0.87747332  0.54756770     0.63300
H1441       H  0.81273745  0.85285517  0.53997904     0.12700
C1442       C  0.79555327  0.87449780  0.43894000     0.55500
H1443       H  0.85335571  0.89235395  0.44520300     0.08500
C1444       C  0.91614094  0.87177445  0.47959980    -0.05300
C1445       C  0.94546173  0.88157318  0.47507475    -0.06000
C1446       C  0.95366994  0.91168767  0.47731639    -0.15600
C1447       C  0.93151227  0.93255395  0.48621473    -0.01200
C1448       C  0.90213608  0.92244670  0.49129949    -0.08700
C1449       C  0.90829930  0.83951741  0.47396624     0.65500
H1450       H  0.96213379  0.86551611  0.46870349     0.11000
C1451       C  0.93819926  0.96536758  0.48985112     0.63900
H1452       H  0.88482093  0.93790787  0.49750608     0.08300
F1453       F  0.81107388  0.88575303  0.41474622    -0.19100
F1454       F  0.77174984  0.89303807  0.44433133    -0.15300
F1455       F  0.78503004  0.84674691  0.43134461    -0.18800
F1456       F  0.87402723  0.90712857  0.55230838    -0.22200
F1457       F  0.89436154  0.86205152  0.54587353    -0.23700
F1458       F  0.85220974  0.86689470  0.57195072    -0.17700
F1459       F  0.94823577  0.97709457  0.46313628    -0.20200
F1460       F  0.95950283  0.96919643  0.51168836    -0.21300
F1461       F  0.91329085  0.98129849  0.49828378    -0.18500
F1462       F  0.93299020  0.82275801  0.46656659    -0.18600
F1463       F  0.88849907  0.83807689  0.45059312    -0.22400
F1464       F  0.89544838  0.82696350  0.49898656    -0.24000
C1465       C  0.64533590  0.86968482  0.47906121    -0.10800
C1466       C  0.63235598  0.87175202  0.50747667     0.11700
C1467       C  0.64936389  0.86407082  0.53290545    -0.02700
C1468       C  0.67902581  0.85500616  0.52902622    -0.05400
C1469       C  0.69191557  0.85229000  0.50068386    -0.16200
C1470       C  0.67500208  0.86011268  0.47518261     0.02700
C1471       C  0.60081676  0.88173478  0.51028334     0.12700
C1472       C  0.63598110  0.86475653  0.56401141     0.63300
H1473       H  0.69226112  0.84918865  0.54823803     0.12700
C1474       C  0.68835121  0.85880468  0.44412946     0.55500
H1475       H  0.63194690  0.87562896  0.45991212     0.08500
C1476       C  0.59296287  0.91207778  0.51156711    -0.05300
C1477       C  0.56330169  0.91980667  0.51816396    -0.06000
C1478       C  0.54113909  0.89825481  0.52315789    -0.15600
C1479       C  0.54885504  0.86771283  0.51984873    -0.01200
C1480       C  0.57862232  0.86016650  0.51344155    -0.08700
C1481       C  0.61589168  0.93614949  0.50586634     0.65500
H1482       H  0.55736652  0.94298172  0.52003678     0.11000
C1483       C  0.52613500  0.84290005  0.52276483     0.63900
H1484       H  0.58514375  0.83710778  0.51179111     0.08300
F1485       F  0.71134197  0.87897906  0.44197955    -0.19100
F1486       F  0.66765158  0.86561817  0.42236171    -0.15300
F1487       F  0.69922886  0.83077026  0.43837618    -0.18800
F1488       F  0.61309728  0.84439366  0.56597274    -0.22200
F1489       F  0.62503096  0.89272004  0.57010435    -0.23700
F1490       F  0.65668801  0.85772581  0.58569184    -0.17700
F1491       F  0.50175601  0.84901259  0.50505719    -0.20200
F1492       F  0.51730049  0.83997727  0.55216854    -0.21300
F1493       F  0.53757313  0.81585359  0.51378079    -0.18500
F1494       F  0.60410665  0.96424779  0.50960765    -0.18600
F1495       F  0.62621786  0.93396536  0.47692166    -0.22400
F1496       F  0.63951072  0.93306042  0.52528290    -0.24000
C1497       C  0.67184889  0.75397961  0.54272414    -0.10800
C1498       C  0.65714961  0.74125181  0.51847094     0.11700
C1499       C  0.66130364  0.75324917  0.48959098    -0.02700
C1500       C  0.68240668  0.77601108  0.48560808    -0.05400
C1501       C  0.69875796  0.78738755  0.50963416    -0.16200
C1502       C  0.69283808  0.77672121  0.53889779     0.02700
C1503       C  0.63978774  0.71367803  0.52373674     0.12700
C1504       C  0.64382859  0.74164592  0.46317006     0.63300
H1505       H  0.68726375  0.78408795  0.46344960     0.12700
C1506       C  0.70846607  0.78741995  0.56682931     0.55500
H1507       H  0.66795305  0.74496610  0.56483800     0.08500
C1508       C  0.65389289  0.68570059  0.52517139    -0.05300
C1509       C  0.63641755  0.66032961  0.53002507    -0.06000
C1510       C  0.60542959  0.66187009  0.53433930    -0.15600
C1511       C  0.59142683  0.69030002  0.53362757    -0.01200
C1512       C  0.60904905  0.71566765  0.52812126    -0.08700
C1513       C  0.68742150  0.68268980  0.52197061     0.65500
H1514       H  0.64722483  0.63892793  0.53112341     0.11000
C1515       C  0.55824962  0.69435243  0.53858328     0.63900
H1516       H  0.59904958  0.73750244  0.52748506     0.08300
F1517       F  0.72391234  0.76404855  0.57945938    -0.19100
F1518       F  0.68745718  0.79724116  0.58704415    -0.15300
F1519       F  0.72817084  0.81031765  0.56172650    -0.18800
F1520       F  0.61384677  0.74635474  0.46793127    -0.22200
F1521       F  0.64878120  0.71160602  0.45963326    -0.23700
F1522       F  0.65173577  0.75581431  0.43690418    -0.17700
F1523       F  0.55090306  0.68632283  0.56746011    -0.20200
F1524       F  0.54250809  0.67715670  0.51860552    -0.21300
F1525       F  0.54948537  0.72352191  0.53451646    -0.18500
F1526       F  0.69649673  0.65337015  0.52303109    -0.18600
F1527       F  0.70141716  0.69756060  0.54488434    -0.22400
F1528       F  0.69661383  0.69453122  0.49503394    -0.24000
C1529       C  0.83653294  0.75207305  0.51468143    -0.10800
C1530       C  0.85127297  0.75082377  0.48722264     0.11700
C1531       C  0.84619917  0.77330885  0.46567696    -0.02700
C1532       C  0.82407451  0.79460348  0.47132796    -0.05400
C1533       C  0.80749694  0.79437052  0.49787198    -0.16200
C1534       C  0.81562136  0.77426720  0.52088304     0.02700
C1535       C  0.86651287  0.72278180  0.47929091     0.12700
C1536       C  0.86323780  0.77400685  0.43637337     0.63300
H1537       H  0.81805822  0.81017424  0.45393111     0.12700
C1538       C  0.80192543  0.77448054  0.55174816     0.55500
H1539       H  0.84033369  0.73467493  0.53102194     0.08500
C1540       C  0.89454068  0.71416823  0.49070112    -0.05300
C1541       C  0.90630453  0.68644210  0.48214221    -0.06000
C1542       C  0.89052125  0.66726986  0.46323872    -0.15600
C1543       C  0.86282085  0.67644576  0.45143720    -0.01200
C1544       C  0.85101283  0.70369035  0.46037397    -0.08700
C1545       C  0.91149469  0.73374110  0.51222296     0.65500
H1546       H  0.92748908  0.67910401  0.49089012     0.11000
C1547       C  0.84568373  0.65778400  0.42930860     0.63900
H1548       H  0.82924794  0.71045081  0.45260149     0.08300
F1549       F  0.82409390  0.77185909  0.57292619    -0.19100
F1550       F  0.78271730  0.75070744  0.55466244    -0.15300
F1551       F  0.78674938  0.80045002  0.55751141    -0.18800
F1552       F  0.85625004  0.74965383  0.41919633    -0.22200
F1553       F  0.89341812  0.77387817  0.44205351    -0.23700
F1554       F  0.85666610  0.79908599  0.41977689    -0.17700
F1555       F  0.82234276  0.67332313  0.41662922    -0.20200
F1556       F  0.83408694  0.63342481  0.44384693    -0.21300
F1557       F  0.86424195  0.64864826  0.40649813    -0.18500
F1558       F  0.93961120  0.72270504  0.51800277    -0.18600
F1559       F  0.89629750  0.73542825  0.53895218    -0.22400
F1560       F  0.91458183  0.76193903  0.50044304    -0.24000
C1561       C  0.50670841  0.84591413  0.88501191    -0.10800
C1562       C  0.47821810  0.85836943  0.88552389     0.11700
C1563       C  0.45366167  0.84142972  0.87561049    -0.02700
C1564       C  0.45878381  0.81272688  0.86446958    -0.05400
C1565       C  0.48756546  0.80099559  0.86217576    -0.16200
C1566       C  0.51186030  0.81725033  0.87395937     0.02700
C1567       C  0.47528353  0.89014866  0.89370353     0.12700
C1568       C  0.42244159  0.85418517  0.87530001     0.63300
H1569       H  0.44048269  0.79981844  0.85575771     0.12700
C1570       C  0.54357159  0.80596125  0.87542690     0.55500
H1571       H  0.52533090  0.85906810  0.89273077     0.08500
C1572       C  0.47296455  0.89986449  0.92355320    -0.05300
C1573       C  0.46841434  0.93030570  0.92902073    -0.06000
C1574       C  0.46735188  0.95127146  0.90569794    -0.15600
C1575       C  0.47274072  0.94158076  0.87595568    -0.01200
C1576       C  0.47602899  0.91104333  0.87057326    -0.08700
C1577       C  0.47565648  0.87821712  0.94941080     0.65500
H1578       H  0.46521994  0.93788023  0.95166969     0.11000
C1579       C  0.47603793  0.96304027  0.84990040     0.63900
H1580       H  0.47903598  0.90306468  0.84801101     0.08300
F1581       F  0.55320464  0.80695658  0.90467524    -0.19100
F1582       F  0.56165935  0.82414290  0.85838152    -0.15300
F1583       F  0.54669996  0.77715273  0.86560081    -0.18800
F1584       F  0.42102562  0.87747184  0.85523703    -0.22200
F1585       F  0.41488030  0.86437220  0.90330974    -0.23700
F1586       F  0.40157676  0.83321000  0.86703915    -0.17700
F1587       F  0.48785411  0.94927799  0.82500375    -0.20200
F1588       F  0.49501963  0.98591022  0.85756982    -0.21300
F1589       F  0.44862623  0.97446368  0.84207841    -0.18500
F1590       F  0.47278494  0.89225701  0.97665407    -0.18600
F1591       F  0.50321140  0.86471377  0.94862613    -0.22400
F1592       F  0.45388763  0.85670633  0.94755555    -0.24000
C1593       C  0.47343584  0.64579068  0.87527576    -0.10800
C1594       C  0.50052735  0.63047152  0.87338284     0.11700
C1595       C  0.52558609  0.64472111  0.86068422    -0.02700
C1596       C  0.52311853  0.67452423  0.85179180    -0.05400
C1597       C  0.49609764  0.68994204  0.85346885    -0.16200
C1598       C  0.47062826  0.67536550  0.86514576     0.02700
C1599       C  0.50240985  0.59943352  0.88473364     0.12700
C1600       C  0.55449831  0.62812641  0.85545441     0.63300
H1601       H  0.54212563  0.68582719  0.84227523     0.12700
C1602       C  0.44060019  0.69071016  0.86648992     0.55500
H1603       H  0.45447454  0.63428103  0.88468230     0.08500
C1604       C  0.51052294  0.59302668  0.91452669    -0.05300
C1605       C  0.51673612  0.56341581  0.92256417    -0.06000
C1606       C  0.51468354  0.54016495  0.90186179    -0.15600
C1607       C  0.50372989  0.54639444  0.87276856    -0.01200
C1608       C  0.49796475  0.57609033  0.86469449    -0.08700
C1609       C  0.51270753  0.61750370  0.93757459     0.65500
H1610       H  0.52422181  0.55834245  0.94493093     0.11000
C1611       C  0.49787174  0.52199073  0.85028378     0.63900
H1612       H  0.49102019  0.58148643  0.84220834     0.08300
F1613       F  0.44173298  0.71395338  0.88642100    -0.19100
F1614       F  0.41833842  0.67153410  0.87567457    -0.15300
F1615       F  0.43295254  0.70157912  0.83869091    -0.18800
F1616       F  0.54964094  0.60514973  0.83573325    -0.22200
F1617       F  0.56513965  0.61664966  0.88196120    -0.23700
F1618       F  0.57624687  0.64633392  0.84345862    -0.17700
F1619       F  0.48213520  0.49913880  0.86362077    -0.20200
F1620       F  0.52448970  0.51125492  0.83937128    -0.21300
F1621       F  0.48130861  0.53219405  0.82636699    -0.18500
F1622       F  0.52100734  0.60664015  0.96522773    -0.18600
F1623       F  0.48537234  0.63115895  0.94056670    -0.22400
F1624       F  0.53346871  0.63839273  0.92882193    -0.24000
C1625       C  0.46951347  0.84457321  0.69692932    -0.10800
C1626       C  0.47209058  0.86258426  0.72207969     0.11700
C1627       C  0.47100928  0.89373609  0.71887553    -0.02700
C1628       C  0.46557168  0.90580840  0.69030296    -0.05400
C1629       C  0.46229318  0.88775577  0.66483628    -0.16200
C1630       C  0.46475678  0.85632561  0.66828030     0.02700
C1631       C  0.47744304  0.84725210  0.75093889     0.12700
C1632       C  0.47629258  0.91398346  0.74534337     0.63300
H1633       H  0.46423493  0.92963728  0.68763990     0.12700
C1634       C  0.46211626  0.83472800  0.64238241     0.55500
H1635       H  0.47135215  0.82082250  0.70014827     0.08500
C1636       C  0.45397881  0.83390692  0.76723962    -0.05300
C1637       C  0.46099367  0.81359857  0.79003780    -0.06000
C1638       C  0.49041759  0.80513177  0.79590505    -0.15600
C1639       C  0.51392657  0.81938052  0.78030268    -0.01200
C1640       C  0.50692730  0.84064664  0.75843616    -0.08700
C1641       C  0.42169059  0.83861951  0.75862451     0.65500
H1642       H  0.44331159  0.80171879  0.80129650     0.11000
C1643       C  0.54653614  0.81192222  0.78428141     0.63900
H1644       H  0.52470238  0.85052796  0.74540199     0.08300
F1645       F  0.46347826  0.80543819  0.65168228    -0.19100
F1646       F  0.48524817  0.83920360  0.62252554    -0.15300
F1647       F  0.43518569  0.83864107  0.62808652    -0.18800
F1648       F  0.50441134  0.90905982  0.75666729    -0.22200
F1649       F  0.45564994  0.90842822  0.76748247    -0.23700
F1650       F  0.47417559  0.94362449  0.73747881    -0.17700
F1651       F  0.55761667  0.80059568  0.75789813    -0.20200
F1652       F  0.55160035  0.79144848  0.80659345    -0.21300
F1653       F  0.56201693  0.83748824  0.79120738    -0.18500
F1654       F  0.40246263  0.82586829  0.77910721    -0.18600
F1655       F  0.41639049  0.82594463  0.73113915    -0.22400
F1656       F  0.41526549  0.86851584  0.75707022    -0.24000
C1657       C  0.53277137  0.67323478  0.74911920    -0.10800
C1658       C  0.50827054  0.65555965  0.74188507     0.11700
C1659       C  0.48244079  0.65654622  0.75984175    -0.02700
C1660       C  0.48085421  0.67792795  0.78258474    -0.05400
C1661       C  0.50460325  0.69730374  0.78829678    -0.16200
C1662       C  0.53163277  0.69384910  0.77238336     0.02700
C1663       C  0.51033248  0.63744468  0.71445841     0.12700
C1664       C  0.45661694  0.63556375  0.75460575     0.63300
H1665       H  0.46057408  0.68049666  0.79521711     0.12700
C1666       C  0.55978862  0.71130844  0.77860180     0.55500
H1667       H  0.55286212  0.67140517  0.73586288     0.08500
C1668       C  0.50608799  0.65033340  0.68605545    -0.05300
C1669       C  0.51235438  0.63330034  0.66073538    -0.06000
C1670       C  0.52303924  0.60390424  0.66262359    -0.15600
C1671       C  0.52535541  0.59043402  0.69136811    -0.01200
C1672       C  0.51939561  0.60781631  0.71679422    -0.08700
C1673       C  0.49590650  0.68235161  0.68243795     0.65500
H1674       H  0.50981627  0.64356661  0.63906775     0.11000
C1675       C  0.53401205  0.55814335  0.69573513     0.63900
H1676       H  0.52254686  0.59866894  0.73891539     0.08300
F1677       F  0.56600734  0.72945936  0.75447127    -0.19100
F1678       F  0.58314937  0.69175144  0.78253334    -0.15300
F1679       F  0.55800133  0.72859097  0.80389011    -0.18800
F1680       F  0.46629824  0.60655986  0.75692153    -0.22200
F1681       F  0.44490955  0.64009732  0.72650499    -0.23700
F1682       F  0.43414279  0.63961889  0.77530221    -0.17700
F1683       F  0.56306959  0.55378935  0.68671610    -0.20200
F1684       F  0.51520604  0.54015904  0.67944378    -0.21300
F1685       F  0.53189803  0.54945542  0.72530520    -0.18500
F1686       F  0.49108210  0.68975531  0.65285544    -0.18600
F1687       F  0.51725637  0.70136465  0.69350414    -0.22400
F1688       F  0.46960869  0.68677845  0.69771221    -0.24000
C1689       C  0.87785212  0.52154521  0.85090080    -0.10800
C1690       C  0.87879516  0.49277481  0.86284718     0.11700
C1691       C  0.86812703  0.46859073  0.84585826    -0.02700
C1692       C  0.85608599  0.47424160  0.81752773    -0.05400
C1693       C  0.85399371  0.50312703  0.80607183    -0.16200
C1694       C  0.86579169  0.52718629  0.82249378     0.02700
C1695       C  0.88785369  0.48895164  0.89443026     0.12700
C1696       C  0.86857400  0.43707464  0.85799145     0.63300
H1697       H  0.84711398  0.45622031  0.80448065     0.12700
C1698       C  0.86509599  0.55867772  0.81035657     0.55500
H1699       H  0.88594592  0.53966182  0.86442566     0.08500
C1700       C  0.91783849  0.48649534  0.90337207    -0.05300
C1701       C  0.92404150  0.48029080  0.93354031    -0.06000
C1702       C  0.90126850  0.47672179  0.95488399    -0.15600
C1703       C  0.87119984  0.48107247  0.94590798    -0.01200
C1704       C  0.86523628  0.48731508  0.91578352    -0.08700
C1705       C  0.94304386  0.49047293  0.88115890     0.65500
H1706       H  0.94688454  0.47751853  0.94052106     0.11000
C1707       C  0.84521158  0.47928114  0.96755678     0.63900
H1708       H  0.84253230  0.49004481  0.90827377     0.08300
F1709       F  0.88275896  0.56061722  0.78520080    -0.19100
F1710       F  0.87562132  0.57894098  0.83090280    -0.15300
F1711       F  0.83634402  0.56659975  0.80303468    -0.18800
F1712       F  0.85020939  0.43490366  0.88261300    -0.22200
F1713       F  0.89713763  0.42934697  0.86615354    -0.23700
F1714       F  0.85886027  0.41677799  0.83707582    -0.17700
F1715       F  0.85067257  0.49690843  0.99211739    -0.20200
F1716       F  0.84094221  0.45021823  0.97653618    -0.21300
F1717       F  0.81898379  0.48900426  0.95471409    -0.18500
F1718       F  0.97054820  0.48625179  0.89427779    -0.18600
F1719       F  0.94227165  0.51888764  0.86952137    -0.22400
F1720       F  0.94027595  0.47036535  0.85815852    -0.24000
C1721       C  0.87539379  0.50154977  0.65252705    -0.10800
C1722       C  0.87256159  0.52865276  0.63746814     0.11700
C1723       C  0.85908009  0.55313147  0.65184671    -0.02700
C1724       C  0.84903856  0.54958375  0.68133044    -0.05400
C1725       C  0.85142720  0.52228817  0.69622472    -0.16200
C1726       C  0.86510226  0.49787543  0.68187481     0.02700
C1727       C  0.88234390  0.53012423  0.60595763     0.12700
C1728       C  0.85445125  0.58248400  0.63577962     0.63300
H1729       H  0.83793874  0.56768438  0.69259909     0.12700
C1730       C  0.86792825  0.46781378  0.69707889     0.55500
H1731       H  0.88533554  0.48309392  0.64078609     0.08500
C1732       C  0.91244628  0.53416563  0.59788088    -0.05300
C1733       C  0.91969588  0.53653361  0.56744581    -0.06000
C1734       C  0.89782908  0.53501655  0.54512414    -0.15600
C1735       C  0.86779159  0.52948431  0.55339821    -0.01200
C1736       C  0.86073689  0.52686409  0.58382271    -0.08700
C1737       C  0.93665619  0.53619255  0.62134818     0.65500
H1738       H  0.94253678  0.54040302  0.56088754     0.11000
C1739       C  0.84311292  0.52619186  0.53055509     0.63900
H1740       H  0.83798990  0.52295982  0.59074957     0.08300
F1741       F  0.88689066  0.46998209  0.72115708    -0.19100
F1742       F  0.87926580  0.44654724  0.67802176    -0.15300
F1743       F  0.84042011  0.45812839  0.70685167    -0.18800
F1744       F  0.83510250  0.57864924  0.61221520    -0.22200
F1745       F  0.88125647  0.59301546  0.62502050    -0.23700
F1746       F  0.84254631  0.60380984  0.65443311    -0.17700
F1747       F  0.81726450  0.51527230  0.54328621    -0.20200
F1748       F  0.85171771  0.50666867  0.50844881    -0.21300
F1749       F  0.83665690  0.55351142  0.51805558    -0.18500
F1750       F  0.96431198  0.54122407  0.60876794    -0.18600
F1751       F  0.93806544  0.50994939  0.63729881    -0.22400
F1752       F  0.93061123  0.55919254  0.64072085    -0.24000
C1753       C  0.75127263  0.46070360  0.82545111    -0.10800
C1754       C  0.74205386  0.48294463  0.84508297     0.11700
C1755       C  0.75822531  0.50981337  0.84670146    -0.02700
C1756       C  0.78134612  0.51473614  0.82610312    -0.05400
C1757       C  0.78840555  0.49365973  0.80429436    -0.16200
C1758       C  0.77418792  0.46558188  0.80481255     0.02700
C1759       C  0.71351964  0.47854887  0.86110784     0.12700
C1760       C  0.75007767  0.53361951  0.86907820     0.63300
H1761       H  0.79258895  0.53593716  0.82546020     0.12700
C1762       C  0.78110157  0.44059264  0.78327599     0.55500
H1763       H  0.73919669  0.43988581  0.82503344     0.08500
C1764       C  0.68605964  0.48341343  0.84670026    -0.05300
C1765       C  0.65969308  0.47778296  0.86247550    -0.06000
C1766       C  0.65960629  0.46657175  0.89188833    -0.15600
C1767       C  0.68753697  0.46223102  0.90645506    -0.01200
C1768       C  0.71395796  0.46833268  0.89056759    -0.08700
C1769       C  0.68456574  0.49343253  0.81429684     0.65500
H1770       H  0.63875636  0.48124680  0.85120516     0.11000
C1771       C  0.69010315  0.45074212  0.93821230     0.63900
H1772       H  0.73541896  0.46461092  0.90078878     0.08300
F1773       F  0.75669125  0.43576976  0.76524752    -0.19100
F1774       F  0.78692731  0.41496272  0.79927322    -0.15300
F1775       F  0.80541978  0.44623224  0.76529613    -0.18800
F1776       F  0.75248231  0.52234107  0.89766232    -0.22200
F1777       F  0.72121555  0.54299206  0.86437994    -0.23700
F1778       F  0.76858882  0.55805523  0.86683511    -0.17700
F1779       F  0.67845233  0.42247770  0.93993067    -0.20200
F1780       F  0.67504422  0.46936479  0.95744570    -0.21300
F1781       F  0.71933165  0.44925246  0.94770657    -0.18500
F1782       F  0.65579861  0.49994027  0.80559209    -0.18600
F1783       F  0.69512388  0.47113776  0.79606238    -0.22400
F1784       F  0.70155908  0.51863603  0.81002121    -0.24000
C1785       C  0.71361264  0.54416262  0.60947365    -0.10800
C1786       C  0.71420644  0.52776826  0.63599924     0.11700
C1787       C  0.68822292  0.51316366  0.64599862    -0.02700
C1788       C  0.66201012  0.51619983  0.62934163    -0.05400
C1789       C  0.66062021  0.53388123  0.60344594    -0.16200
C1790       C  0.68728423  0.54753182  0.59275138     0.02700
C1791       C  0.74132342  0.52850244  0.65471974     0.12700
C1792       C  0.68793771  0.49529670  0.67483501     0.63300
H1793       H  0.64195572  0.50545682  0.63719481     0.12700
C1794       C  0.68825653  0.56638784  0.56456996     0.55500
H1795       H  0.73389523  0.55513854  0.60254902     0.08500
C1796       C  0.76457300  0.50764730  0.65170753    -0.05300
C1797       C  0.78576828  0.50547778  0.67466456    -0.06000
C1798       C  0.78529530  0.52481591  0.69916885    -0.15600
C1799       C  0.76438561  0.54836147  0.69971080    -0.01200
C1800       C  0.74226607  0.54928946  0.67778477    -0.08700
C1801       C  0.76683500  0.48794382  0.62447179     0.65500
H1802       H  0.80217886  0.48798748  0.67413619     0.11000
C1803       C  0.76373863  0.57242336  0.72329462     0.63900
H1804       H  0.72489629  0.56590491  0.67918889     0.08300
F1805       F  0.68050528  0.54932090  0.54023556    -0.19100
F1806       F  0.71632661  0.57779215  0.55915187    -0.15300
F1807       F  0.66893821  0.59009561  0.56718972    -0.18800
F1808       F  0.69323300  0.51378467  0.69875270    -0.22200
F1809       F  0.70965504  0.47365456  0.67397535    -0.23700
F1810       F  0.66090111  0.48140876  0.67956032    -0.17700
F1811       F  0.76118069  0.59984943  0.70958881    -0.20200
F1812       F  0.78911872  0.57305520  0.74058351    -0.21300
F1813       F  0.73938455  0.56808975  0.74163186    -0.18500
F1814       F  0.79095430  0.46896130  0.62616946    -0.18600
F1815       F  0.77026032  0.50546560  0.59933875    -0.22400
F1816       F  0.74142482  0.47101351  0.62149189    -0.24000
loop_ 
_geom_bond_atom_site_label_1 
_geom_bond_atom_site_label_2 
_geom_bond_distance 
_geom_bond_site_symmetry_2 
_ccdc_geom_bond_type 
C1            C2   1.413       .  A
C1            C6   1.407       .  A
C1         C1725   1.480       .  S
C2            C3   1.398       .  A
C2         C1798   1.487       .  S
C3            C4   1.398       .  A
C3            H8   1.085       .  S
C4            C5   1.413       .  A
C4         C1757   1.480       .  S
C5            C6   1.405       .  A
C5         C1693   1.484       .  S
C6            H7   1.083       .  S
C9           C10   1.415       .  A
C9           C14   1.412       .  A
C9         C1597   1.492       .  S
C10          C11   1.399       .  A
C10        C1661   1.485       .  S
C11          C12   1.398       .  A
C11          H16   1.085       .  S
C12          C13   1.414       .  A
C12        C1638   1.486       .  S
C13          C14   1.412       .  A
C13        C1565   1.486       .  S
C14          H15   1.083       .  S
C17          C18   1.418       .  A
C17          C22   1.402       .  A
C17        C1533   1.494       .  S
C18          C19   1.417       .  A
C18        C1437   1.496       .  S
C19          C20   1.416       .  A
C19          H24   1.083       .  S
C20          C21   1.415       .  A
C20        C1469   1.495       .  S
C21          C22   1.398       .  A
C21        C1501   1.487       .  S
C22          H23   1.085       .  S
O25          C41   1.274       .  A
O25         Zn31   2.035       .  S
C26        C1373   1.502       .  S
C26          O42   1.277   1_554  A
C26          O39   1.275       .  A
O27          C40   1.276       .  A
O27         Cd34   2.080       .  S
O28          C46   1.278       .  A
O28         Cd37   2.087       .  S
O29          C43   1.275       .  A
O29         Cd33   2.076       .  S
O30          C41   1.277       .  A
O30         Cd33   2.070       .  S
Zn31         O42   2.017       .  S
Zn31         O44   2.029       .  S
Zn31         O36   1.946       .  S
O32          C43   1.279       .  A
O32         Cd37   2.097       .  S
Cd33         O35   2.073       .  S
Cd33         O36   1.994       .  S
Cd34         O38   2.067       .  S
Cd34         O47   2.065       .  S
Cd34         O36   2.001       .  S
O35          C45   1.273       .  A
O36         Cd37   2.008       .  S
Cd37         O39   2.083   1_556  S
O38          C45   1.275       .  A
C40        C1318   1.494       .  S
C40          O44   1.274       .  A
C41        C1766   1.505       .  S
C43        C1606   1.492       .  S
C45        C1341   1.501       .  S
C46        C1405   1.491       .  S
C46          O47   1.273       .  A
O48          C64   1.272       .  A
O48         Zn54   2.017       .  S
C49        C1245   1.490       .  S
C49          O65   1.273       .  A
C49          O62   1.280       .  A
O50          C63   1.271       .  A
O50         Cd57   2.070       .  S
O51          C69   1.277       .  A
O51         Cd60   2.095       .  S
O52          C66   1.278       .  A
O52         Cd56   2.078       .  S
O53          C64   1.278       .  A
O53         Cd56   2.079       .  S
Zn54         O65   2.004       .  S
Zn54         O67   2.024       .  S
Zn54         O59   1.937       .  S
O55          C66   1.277       .  A
O55         Cd60   2.090       .  S
Cd56         O58   2.090       .  S
Cd56         O59   2.003       .  S
Cd57         O61   2.049       .  S
Cd57         O70   2.051       .  S
Cd57         O59   1.989       .  S
O58          C68   1.275       .  A
O59         Cd60   2.010       .  S
Cd60         O62   2.102       .  S
O61          C68   1.273       .  A
C63        C1510   1.500       .  S
C63          O67   1.275       .  A
C64        C1789   1.498       .  S
C66        C1286   1.498       .  S
C68        C1670   1.502       .  S
C69        C1222   1.499       .  S
C69          O70   1.274       .  A
O71          C87   1.274       .  A
O71         Zn77   2.033       .  S
C72        C1478   1.503       .  S
C72          O88   1.274       .  A
C72          O85   1.281       .  A
O73          C86   1.276       .  A
O73         Cd80   2.089       .  S
O74          C92   1.277   1_565  A
O74         Cd83   2.092       .  S
O75          C89   1.271       .  A
O75         Cd79   2.055       .  S
O76          C87   1.273       .  A
O76         Cd79   2.050       .  S
Zn77         O88   2.025       .  S
Zn77         O90   2.014       .  S
Zn77         O82   1.942       .  S
O78          C89   1.280       .  A
O78         Cd83   2.108       .  S
Cd79         O81   2.069       .  S
Cd79         O82   1.994       .  S
Cd80         O84   2.071       .  S
Cd80         O93   2.066       .  S
Cd80         O82   2.004       .  S
O81          C91   1.271       .  A
O82         Cd83   2.011       .  S
Cd83         O85   2.104       .  S
O84          C91   1.276       .  A
C86        C1629   1.501       .  S
C86          O90   1.271       .  A
C87        C1126   1.490       .  S
C89        C1085   1.498       .  S
C91        C1158   1.501       .  S
C92        C1190   1.504       .  S
C92          O93   1.277   1_545  A
C94          C95   1.415       .  A
C94          C99   1.411       .  A
C94        C1277   1.482       .  S
C95          C96   1.395       .  A
C95        C1350   1.483       .  S
C96          C97   1.394       .  A
C96         H101   1.086       .  S
C97          C98   1.412       .  A
C97        C1053   1.475       .  S
C98          C99   1.409       .  A
C98        C1181   1.486       .  S
C99         H100   1.084       .  S
O102        C118   1.276       .  A
O102       Zn108   2.054       .  S
C103       C1021   1.504       .  S
C103        O119   1.278       .  A
C103        O116   1.274       .  A
O104        C117   1.270       .  A
O104       Cd111   2.059       .  S
O105        C123   1.279       .  A
O105       Cd114   2.099   1_565  S
O106        C120   1.278   1_556  A
O106       Cd110   2.076       .  S
O107        C118   1.276       .  A
O107       Cd110   2.071       .  S
Zn108       O119   2.027       .  S
Zn108       O121   2.018       .  S
Zn108       O113   1.948       .  S
O109        C120   1.276   1_556  A
O109       Cd114   2.086       .  S
Cd110       O112   2.085       .  S
Cd110       O113   1.996       .  S
Cd111       O115   2.049       .  S
Cd111       O124   2.055   1_545  S
Cd111       O113   1.989       .  S
O112        C122   1.276       .  A
O113       Cd114   2.002       .  S
Cd114       O116   2.076       .  S
O115        C122   1.270       .  A
C117       C1062   1.497       .  S
C117        O121   1.276       .  A
C118        C989   1.505       .  S
C120        C925   1.506       .  S
C122        C957   1.486       .  S
C123       C1574   1.494       .  S
C123        O124   1.271       .  A
C125        C126   1.415       .  A
C125        C130   1.398   1_556  A
C125       C1309   1.488       .  S
C126        C127   1.411       .  A
C126       C1030   1.486       .  S
C127        C128   1.410       .  A
C127        H132   1.083       .  S
C128        C129   1.412   1_556  A
C128        C870   1.486   1_556  S
C129        C130   1.399       .  A
C129        C893   1.483       .  S
C130        H131   1.085       .  S
C133        C134   1.412       .  A
C133        C138   1.408       .  A
C133        C838   1.483       .  S
C134        C135   1.396       .  A
C134       C1149   1.482       .  S
C135        C136   1.398       .  A
C135        H140   1.085       .  S
C136        C137   1.415   1_565  A
C136        C966   1.484   1_565  S
C137        C138   1.409   1_545  A
C137        C797   1.483       .  S
C138        H139   1.083   1_565  S
C141        C142   1.415       .  A
C141        C146   1.398       .  A
C141        C765   1.489       .  S
C142        C143   1.411       .  A
C142        C669   1.486       .  S
C143        C144   1.409       .  A
C143        H148   1.083       .  S
C144        C145   1.415       .  A
C144        C701   1.488       .  S
C145        C146   1.400       .  A
C145        C733   1.484       .  S
C146        H147   1.085       .  S
C149        C150   1.415       .  A
C149        C154   1.394       .  A
C149       C1117   1.479       .  S
C150        C151   1.410       .  A
C150       C1213   1.486       .  S
C151        C152   1.410       .  A
C151        H156   1.084       .  S
C152        C153   1.414       .  A
C152        C605   1.483       .  S
C153        C154   1.395       .  A
C153        C646   1.481       .  S
C154        H155   1.085       .  S
C157        C158   1.412       .  A
C157        C162   1.398       .  A
C157        C573   1.487       .  S
C158        C159   1.411       .  A
C158       C1382   1.484       .  S
C159        C160   1.410       .  A
C159        H164   1.083       .  S
C160        C161   1.415       .  A
C160       C1254   1.489       .  S
C161        C162   1.400       .  A
C161        C550   1.484       .  S
C162        H163   1.085       .  S
O165        C181   1.274       .  A
O165       Zn171   2.038       .  S
C166       C1734   1.486       .  S
C166        O182   1.272       .  A
C166        O179   1.278       .  A
O167        C180   1.273       .  A
O167       Cd174   2.074       .  S
O168        C186   1.276   1_655  A
O168       Cd177   2.093       .  S
O169        C183   1.277       .  A
O169       Cd173   2.067       .  S
O170        C181   1.274       .  A
O170       Cd173   2.055       .  S
Zn171       O182   2.006       .  S
Zn171       O184   2.016       .  S
Zn171       O176   1.940       .  S
O172        C183   1.277       .  A
O172       Cd177   2.098       .  S
Cd173       O175   2.076       .  S
Cd173       O176   1.987       .  S
Cd174       O178   2.070       .  S
Cd174       O187   2.058       .  S
Cd174       O176   1.993       .  S
O175        C185   1.273       .  A
O176       Cd177   2.007       .  S
Cd177       O179   2.084       .  S
O178        C185   1.276       .  A
C180       C1542   1.481       .  S
C180        O184   1.273       .  A
C181        C541   1.502       .  S
C183        C518   1.508       .  S
C185        C742   1.502       .  S
C186        C614   1.503       .  S
C186        O187   1.276   1_455  A
O188        C204   1.273       .  A
O188       Zn194   2.035       .  S
C189       C1446   1.508       .  S
C189        O205   1.276       .  A
C189        O202   1.277       .  A
O190        C203   1.276       .  A
O190       Cd197   2.076       .  S
O191        C209   1.280       .  A
O191       Cd200   2.100   1_545  S
O192        C206   1.273       .  A
O192       Cd196   2.061       .  S
O193        C204   1.276       .  A
O193       Cd196   2.069       .  S
Zn194       O205   2.016   1_455  S
Zn194       O207   2.020       .  S
Zn194       O199   1.945       .  S
O195        C206   1.279       .  A
O195       Cd200   2.087       .  S
Cd196       O198   2.084       .  S
Cd196       O199   2.001       .  S
Cd197       O201   2.069       .  S
Cd197       O210   2.070       .  S
Cd197       O199   1.996       .  S
O198        C208   1.276       .  A
O199       Cd200   2.013       .  S
Cd200       O202   2.102   1_455  S
O201        C208   1.273       .  A
C203        C774   1.491       .  S
C203        O207   1.273       .  A
C204        C637   1.504       .  S
C206        C829   1.489       .  S
C208        C486   1.493       .  S
C209        C454   1.501       .  S
C209        O210   1.273   1_545  A
O211        C227   1.276       .  A
O211       Zn217   2.034       .  S
C212       C1702   1.494       .  S
C212        O228   1.273   1_556  A
C212        O225   1.278       .  A
O213        C226   1.273       .  A
O213       Cd220   2.079       .  S
O214        C232   1.277   1_655  A
O214       Cd223   2.100       .  S
O215        C229   1.279       .  A
O215       Cd219   2.084       .  S
O216        C227   1.272       .  A
O216       Cd219   2.063       .  S
Zn217       O228   2.014       .  S
Zn217       O230   2.017       .  S
Zn217       O222   1.948       .  S
O218        C229   1.276       .  A
O218       Cd223   2.089       .  S
Cd219       O221   2.090       .  S
Cd219       O222   2.002       .  S
Cd220       O224   2.069       .  S
Cd220       O233   2.074       .  S
Cd220       O222   1.993       .  S
O221        C231   1.278       .  A
O222       Cd223   2.008       .  S
Cd223       O225   2.088   1_554  S
O224        C231   1.273       .  A
C226        C902   1.504       .  S
C226        O230   1.275       .  A
C227        C582   1.490       .  S
C229        C710   1.505       .  S
C231        C422   1.496       .  S
C232        C390   1.510       .  S
C232        O233   1.278   1_455  A
C234        C235   1.414       .  A
C234        C239   1.397       .  A
C234        C477   1.484   1_545  S
C235        C236   1.409       .  A
C235       C1094   1.487       .  S
C236        C237   1.411       .  A
C236        H241   1.085       .  S
C237        C238   1.417       .  A
C237        C934   1.489       .  S
C238        C239   1.400       .  A
C238        C358   1.490       .  S
C239        H240   1.087       .  S
O242        C258   1.276       .  A
O242       Zn248   2.035       .  S
C243        C861   1.493       .  S
C243        O259   1.275       .  A
C243        O256   1.278       .  A
O244        C257   1.275       .  A
O244       Cd251   2.077       .  S
O245        C263   1.276       .  A
O245       Cd254   2.087   1_565  S
O246        C260   1.271   1_554  A
O246       Cd250   2.057       .  S
O247        C258   1.270       .  A
O247       Cd250   2.045       .  S
Zn248       O259   2.024   1_455  S
Zn248       O261   2.013       .  S
Zn248       O253   1.946       .  S
O249        C260   1.279       .  A
O249       Cd254   2.098   1_556  S
Cd250       O252   2.075       .  S
Cd250       O253   1.991       .  S
Cd251       O255   2.073       .  S
Cd251       O264   2.069       .  S
Cd251       O253   2.001       .  S
O252        C262   1.274       .  A
O253       Cd254   2.008       .  S
Cd254       O256   2.094   1_455  S
O255        C262   1.274       .  A
C257        C317   1.486       .  S
C257        O261   1.272       .  A
C258        C294   1.487       .  S
C260        C806   1.496       .  S
C262        C349   1.482       .  S
C263        C678   1.504       .  S
C263        O264   1.277   1_565  A
C265        C266   1.415       .  A
C265        C270   1.412       .  A
C265        C509   1.488       .  S
C266        C267   1.399       .  A
C266        C413   1.486       .  S
C267        C268   1.399       .  A
C267        H272   1.085       .  S
C268        C269   1.415       .  A
C268        C326   1.486       .  S
C269        C270   1.411       .  A
C269        C445   1.489       .  S
C270        H271   1.083       .  S
C273        C274   1.419       .  A
C273        C278   1.405       .  A
C273        C998   1.500       .  S
C274        C275   1.412       .  A
C274       C1414   1.487       .  S
C275        C276   1.408       .  A
C275        H280   1.083       .  S
C276        C277   1.411       .  A
C276        C381   1.490       .  S
C277        C278   1.403       .  A
C277        C285   1.483   1_556  S
C278        H279   1.084       .  S
C281        C282   1.403   1_556  A
C281        C286   1.405       .  A
C281        H291   1.085       .  S
C282        C283   1.417       .  A
C282        C287   1.482       .  S
C283        C284   1.403       .  A
C283        C288   1.518       .  S
C284        C285   1.402       .  A
C284        H289   1.083       .  S
C285        C286   1.417   1_554  A
C286        C290   1.517       .  S
C287        C292   1.413       .  A
C287        C296   1.398       .  A
C288        F304   1.383       .  S
C288        F305   1.382       .  S
C288        F306   1.383       .  S
C290        F301   1.383       .  S
C290        F302   1.383       .  S
C290        F303   1.381       .  S
C292        C293   1.409       .  A
C292        C297   1.515       .  S
C293        C294   1.408       .  A
C293        H298   1.083       .  S
C294        C295   1.425       .  A
C295        C296   1.402       .  A
C295        C299   1.523       .  S
C296        H300   1.084       .  S
C297        F310   1.384       .  S
C297        F311   1.382   1_554  S
C297        F312   1.382       .  S
C299        F307   1.385       .  S
C299        F308   1.383       .  S
C299        F309   1.384       .  S
C313        C314   1.400       .  A
C313        C318   1.404       .  A
C313        H323   1.084       .  S
C314        C315   1.415       .  A
C314        C319   1.485       .  S
C315        C316   1.411       .  A
C315        C320   1.519   1_455  S
C316        C317   1.407       .  A
C316        H321   1.083       .  S
C317        C318   1.422       .  A
C318        C322   1.522       .  S
C319        C324   1.416       .  A
C319        C328   1.401   1_455  A
C320        F336   1.382       .  S
C320        F337   1.382   1_655  S
C320        F338   1.384       .  S
C322        F333   1.385       .  S
C322        F334   1.382       .  S
C322        F335   1.384       .  S
C324        C325   1.406       .  A
C324        C329   1.519       .  S
C325        C326   1.404   1_455  A
C325        H330   1.082       .  S
C326        C327   1.419       .  A
C327        C328   1.404       .  A
C327        C331   1.518       .  S
C328        H332   1.085       .  S
C329        F342   1.385       .  S
C329        F343   1.382       .  S
C329        F344   1.382       .  S
C331        F339   1.383       .  S
C331        F340   1.380       .  S
C331        F341   1.384       .  S
C345        C346   1.402       .  A
C345        C350   1.406       .  A
C345        H355   1.084       .  S
C346        C347   1.416       .  A
C346        C351   1.486       .  S
C347        C348   1.410       .  A
C347        C352   1.519   1_545  S
C348        C349   1.405       .  A
C348        H353   1.083       .  S
C349        C350   1.419       .  A
C350        C354   1.521       .  S
C351        C356   1.418       .  A
C351        C360   1.398   1_545  A
C352        F368   1.382       .  S
C352        F369   1.381   1_565  S
C352        F370   1.384       .  S
C354        F365   1.385       .  S
C354        F366   1.383       .  S
C354        F367   1.383       .  S
C356        C357   1.410       .  A
C356        C361   1.518       .  S
C357        C358   1.404       .  A
C357        H362   1.097       .  S
C358        C359   1.421   1_545  A
C359        C360   1.400       .  A
C359        C363   1.519       .  S
C360        H364   1.093       .  S
C361        F374   1.384       .  S
C361        F375   1.381       .  S
C361        F376   1.382       .  S
C363        F371   1.383       .  S
C363        F372   1.382       .  S
C363        F373   1.384       .  S
C377        C378   1.402       .  A
C377        C382   1.408       .  A
C377        H387   1.085       .  S
C378        C379   1.415   1_554  A
C378        C383   1.493       .  S
C379        C380   1.411       .  A
C379        C384   1.518       .  S
C380        C381   1.406       .  A
C380        H385   1.083       .  S
C381        C382   1.421   1_556  A
C382        C386   1.518       .  S
C383        C388   1.413       .  A
C383        C392   1.402       .  A
C384        F400   1.383       .  S
C384        F401   1.382       .  S
C384        F402   1.384       .  S
C386        F397   1.383       .  S
C386        F398   1.383       .  S
C386        F399   1.379       .  S
C388        C389   1.406       .  A
C388        C393   1.521       .  S
C389        C390   1.412       .  A
C389        H394   1.081       .  S
C390        C391   1.430       .  A
C391        C392   1.416       .  A
C391        C395   1.520       .  S
C392        H396   1.083       .  S
C393        F406   1.384       .  S
C393        F407   1.382       .  S
C393        F408   1.383       .  S
C395        F403   1.385   1_554  S
C395        F404   1.383       .  S
C395        F405   1.384   1_554  S
C409        C410   1.401       .  A
C409        C414   1.405       .  A
C409        H419   1.085   1_655  S
C410        C411   1.418       .  A
C410        C415   1.488       .  S
C411        C412   1.409       .  A
C411        C416   1.519       .  S
C412        C413   1.403       .  A
C412        H417   1.081       .  S
C413        C414   1.420       .  A
C414        C418   1.519   1_655  S
C415        C420   1.414       .  A
C415        C424   1.399       .  A
C416        F432   1.382       .  S
C416        F433   1.381       .  S
C416        F434   1.385       .  S
C418        F429   1.383       .  S
C418        F430   1.383       .  S
C418        F431   1.381       .  S
C420        C421   1.412       .  A
C420        C425   1.517       .  S
C421        C422   1.409       .  A
C421        H426   1.083       .  S
C422        C423   1.427       .  A
C423        C424   1.406       .  A
C423        C427   1.521       .  S
C424        H428   1.084       .  S
C425        F438   1.384       .  S
C425        F439   1.382       .  S
C425        F440   1.380       .  S
C427        F435   1.383       .  S
C427        F436   1.384       .  S
C427        F437   1.385       .  S
C441        C442   1.402   1_655  A
C441        C446   1.407       .  A
C441        H451   1.085       .  S
C442        C443   1.416       .  A
C442        C447   1.490       .  S
C443        C444   1.409       .  A
C443        C448   1.519       .  S
C444        C445   1.404   1_455  A
C444        H449   1.083       .  S
C445        C446   1.420       .  A
C446        C450   1.517       .  S
C447        C452   1.414       .  A
C447        C456   1.400       .  A
C448        F464   1.382       .  S
C448        F465   1.381       .  S
C448        F466   1.385       .  S
C450        F461   1.380       .  S
C450        F462   1.384       .  S
C450        F463   1.383       .  S
C452        C453   1.411       .  A
C452        C457   1.520       .  S
C453        C454   1.410       .  A
C453        H458   1.082       .  S
C454        C455   1.428       .  A
C455        C456   1.410       .  A
C455        C459   1.522       .  S
C456        H460   1.083       .  S
C457        F470   1.384       .  S
C457        F471   1.382   1_455  S
C457        F472   1.382       .  S
C459        F467   1.384       .  S
C459        F468   1.383       .  S
C459        F469   1.385       .  S
C473        C474   1.402   1_545  A
C473        C478   1.405       .  A
C473        H483   1.085       .  S
C474        C475   1.417       .  A
C474        C479   1.484       .  S
C475        C476   1.404       .  A
C475        C480   1.518       .  S
C476        C477   1.404       .  A
C476        H481   1.084       .  S
C477        C478   1.419   1_565  A
C478        C482   1.517       .  S
C479        C484   1.412       .  A
C479        C488   1.400       .  A
C480        F496   1.383       .  S
C480        F497   1.382       .  S
C480        F498   1.384       .  S
C482        F493   1.383       .  S
C482        F494   1.383       .  S
C482        F495   1.380       .  S
C484        C485   1.410       .  A
C484        C489   1.517       .  S
C485        C486   1.410       .  A
C485        H490   1.083       .  S
C486        C487   1.426       .  A
C487        C488   1.407       .  A
C487        C491   1.522       .  S
C488        H492   1.084       .  S
C489        F502   1.384       .  S
C489        F503   1.382   1_565  S
C489        F504   1.383       .  S
C491        F499   1.385       .  S
C491        F500   1.383       .  S
C491        F501   1.384       .  S
C505        C506   1.404       .  A
C505        C510   1.410       .  A
C505        H515   1.083       .  S
C506        C507   1.415       .  A
C506        C511   1.488       .  S
C507        C508   1.407   1_655  A
C507        C512   1.519   1_655  S
C508        C509   1.403   1_455  A
C508        H513   1.081       .  S
C509        C510   1.417       .  A
C510        C514   1.519       .  S
C511        C516   1.412       .  A
C511        C520   1.401       .  A
C512        F528   1.382       .  S
C512        F529   1.382       .  S
C512        F530   1.384       .  S
C514        F525   1.381       .  S
C514        F526   1.385       .  S
C514        F527   1.382       .  S
C516        C517   1.406       .  A
C516        C521   1.522       .  S
C517        C518   1.413       .  A
C517        H522   1.081       .  S
C518        C519   1.430       .  A
C519        C520   1.415       .  A
C519        C523   1.520       .  S
C520        H524   1.083       .  S
C521        F534   1.384       .  S
C521        F535   1.382       .  S
C521        F536   1.382       .  S
C523        F531   1.384       .  S
C523        F532   1.383       .  S
C523        F533   1.385       .  S
C537        C538   1.398       .  A
C537        C542   1.410       .  A
C537        H547   1.083       .  S
C538        C539   1.411       .  A
C538        C543   1.479       .  S
C539        C540   1.402       .  A
C539        C544   1.523       .  S
C540        C541   1.412       .  A
C540        H545   1.081       .  S
C541        C542   1.429       .  A
C542        C546   1.517       .  S
C543        C548   1.413       .  A
C543        C552   1.399       .  A
C544        F560   1.382       .  S
C544        F561   1.381       .  S
C544        F562   1.385       .  S
C546        F557   1.383       .  S
C546        F558   1.385       .  S
C546        F559   1.378       .  S
C548        C549   1.408       .  A
C548        C553   1.518       .  S
C549        C550   1.405       .  A
C549        H554   1.081       .  S
C550        C551   1.418       .  A
C551        C552   1.400       .  A
C551        C555   1.517       .  S
C552        H556   1.085       .  S
C553        F566   1.384       .  S
C553        F567   1.383       .  S
C553        F568   1.382       .  S
C555        F563   1.384       .  S
C555        F564   1.381       .  S
C555        F565   1.382       .  S
C569        C570   1.400       .  A
C569        C574   1.402       .  A
C569        H579   1.085       .  S
C570        C571   1.418       .  A
C570        C575   1.485       .  S
C571        C572   1.408       .  A
C571        C576   1.519       .  S
C572        C573   1.404       .  A
C572        H577   1.083       .  S
C573        C574   1.418       .  A
C574        C578   1.516       .  S
C575        C580   1.414       .  A
C575        C584   1.400       .  A
C576        F592   1.382       .  S
C576        F593   1.381       .  S
C576        F594   1.385       .  S
C578        F589   1.384       .  S
C578        F590   1.383       .  S
C578        F591   1.380       .  S
C580        C581   1.411       .  A
C580        C585   1.518       .  S
C581        C582   1.409       .  A
C581        H586   1.083       .  S
C582        C583   1.424       .  A
C583        C584   1.404       .  A
C583        C587   1.522       .  S
C584        H588   1.084       .  S
C585        F598   1.385       .  S
C585        F599   1.382       .  S
C585        F600   1.381       .  S
C587        F595   1.385       .  S
C587        F596   1.383       .  S
C587        F597   1.384       .  S
C601        C602   1.400       .  A
C601        C606   1.405       .  A
C601        H611   1.085       .  S
C602        C603   1.413       .  A
C602        C607   1.482       .  S
C603        C604   1.405       .  A
C603        C608   1.519       .  S
C604        C605   1.405       .  A
C604        H609   1.083       .  S
C605        C606   1.421       .  A
C606        C610   1.518       .  S
C607        C612   1.411       .  A
C607        C616   1.400       .  A
C608        F624   1.382       .  S
C608        F625   1.382       .  S
C608        F626   1.385       .  S
C610        F621   1.383       .  S
C610        F622   1.384       .  S
C610        F623   1.378       .  S
C612        C613   1.403       .  A
C612        C617   1.524       .  S
C613        C614   1.413       .  A
C613        H618   1.081       .  S
C614        C615   1.429       .  A
C615        C616   1.412       .  A
C615        C619   1.521       .  S
C616        H620   1.083       .  S
C617        F630   1.385       .  S
C617        F631   1.382       .  S
C617        F632   1.382       .  S
C619        F627   1.383       .  S
C619        F628   1.383       .  S
C619        F629   1.385       .  S
C633        C634   1.399       .  A
C633        C638   1.412       .  A
C633        H643   1.083       .  S
C634        C635   1.414       .  A
C634        C639   1.483       .  S
C635        C636   1.404       .  A
C635        C640   1.524       .  S
C636        C637   1.411       .  A
C636        H641   1.081       .  S
C637        C638   1.430       .  A
C638        C642   1.520       .  S
C639        C644   1.413       .  A
C639        C648   1.399       .  A
C640        F656   1.382       .  S
C640        F657   1.382       .  S
C640        F658   1.384       .  S
C642        F653   1.384       .  S
C642        F654   1.385       .  S
C642        F655   1.382       .  S
C644        C645   1.408       .  A
C644        C649   1.517       .  S
C645        C646   1.406       .  A
C645        H650   1.082       .  S
C646        C647   1.419       .  A
C647        C648   1.401       .  A
C647        C651   1.518       .  S
C648        H652   1.085       .  S
C649        F662   1.385       .  S
C649        F663   1.382       .  S
C649        F664   1.382       .  S
C651        F659   1.383       .  S
C651        F660   1.379       .  S
C651        F661   1.383       .  S
C665        C666   1.403       .  A
C665        C670   1.409       .  A
C665        H675   1.083       .  S
C666        C667   1.415   1_455  A
C666        C671   1.485       .  S
C667        C668   1.406       .  A
C667        C672   1.520       .  S
C668        C669   1.404       .  A
C668        H673   1.082       .  S
C669        C670   1.418   1_655  A
C670        C674   1.520       .  S
C671        C676   1.411       .  A
C671        C680   1.399       .  A
C672        F688   1.382       .  S
C672        F689   1.382       .  S
C672        F690   1.384       .  S
C674        F685   1.382       .  S
C674        F686   1.384       .  S
C674        F687   1.381       .  S
C676        C677   1.406       .  A
C676        C681   1.522       .  S
C677        C678   1.414       .  A
C677        H682   1.082       .  S
C678        C679   1.430       .  A
C679        C680   1.411       .  A
C679        C683   1.521   1_455  S
C680        H684   1.083   1_455  S
C681        F694   1.385       .  S
C681        F695   1.382       .  S
C681        F696   1.382       .  S
C683        F691   1.383   1_655  S
C683        F692   1.384       .  S
C683        F693   1.385       .  S
C697        C698   1.402       .  A
C697        C702   1.407       .  A
C697        H707   1.085       .  S
C698        C699   1.416       .  A
C698        C703   1.491       .  S
C699        C700   1.409       .  A
C699        C704   1.518   1_655  S
C700        C701   1.404       .  A
C700        H705   1.083   1_655  S
C701        C702   1.419       .  A
C702        C706   1.516       .  S
C703        C708   1.413       .  A
C703        C712   1.399       .  A
C704        F720   1.382       .  S
C704        F721   1.382       .  S
C704        F722   1.384       .  S
C706        F717   1.383       .  S
C706        F718   1.384       .  S
C706        F719   1.381       .  S
C708        C709   1.408       .  A
C708        C713   1.519       .  S
C709        C710   1.411       .  A
C709        H714   1.082       .  S
C710        C711   1.430       .  A
C711        C712   1.413       .  A
C711        C715   1.521       .  S
C712        H716   1.083       .  S
C713        F726   1.384       .  S
C713        F727   1.382       .  S
C713        F728   1.380       .  S
C715        F723   1.385       .  S
C715        F724   1.384       .  S
C715        F725   1.383       .  S
C729        C730   1.399       .  A
C729        C734   1.401       .  A
C729        H739   1.085       .  S
C730        C731   1.413       .  A
C730        C735   1.481       .  S
C731        C732   1.408       .  A
C731        C736   1.519   1_655  S
C732        C733   1.407       .  A
C732        H737   1.081   1_655  S
C733        C734   1.420       .  A
C734        C738   1.518       .  S
C735        C740   1.413       .  A
C735        C744   1.398       .  A
C736        F752   1.383   1_455  S
C736        F753   1.381       .  S
C736        F754   1.385       .  S
C738        F749   1.383       .  S
C738        F750   1.383       .  S
C738        F751   1.379       .  S
C740        C741   1.405       .  A
C740        C745   1.523       .  S
C741        C742   1.412       .  A
C741        H746   1.082       .  S
C742        C743   1.430       .  A
C743        C744   1.410       .  A
C743        C747   1.521       .  S
C744        H748   1.083       .  S
C745        F758   1.385       .  S
C745        F759   1.382       .  S
C745        F760   1.381   1_655  S
C747        F755   1.384       .  S
C747        F756   1.383       .  S
C747        F757   1.385       .  S
C761        C762   1.401   1_655  A
C761        C766   1.405       .  A
C761        H771   1.085       .  S
C762        C763   1.417       .  A
C762        C767   1.486       .  S
C763        C764   1.408       .  A
C763        C768   1.520       .  S
C764        C765   1.404   1_455  A
C764        H769   1.080       .  S
C765        C766   1.419       .  A
C766        C770   1.517       .  S
C767        C772   1.413       .  A
C767        C776   1.401       .  A
C768        F784   1.382       .  S
C768        F785   1.382       .  S
C768        F786   1.384       .  S
C770        F781   1.384       .  S
C770        F782   1.382       .  S
C770        F783   1.381       .  S
C772        C773   1.409       .  A
C772        C777   1.518   1_455  S
C773        C774   1.408       .  A
C773        H778   1.083       .  S
C774        C775   1.424       .  A
C775        C776   1.407       .  A
C775        C779   1.521       .  S
C776        H780   1.083       .  S
C777        F790   1.385       .  S
C777        F791   1.382       .  S
C777        F792   1.381   1_655  S
C779        F787   1.383       .  S
C779        F788   1.384       .  S
C779        F789   1.385       .  S
C793        C794   1.401   1_565  A
C793        C798   1.405       .  A
C793        H803   1.085       .  S
C794        C795   1.416       .  A
C794        C799   1.485       .  S
C795        C796   1.407       .  A
C795        C800   1.519       .  S
C796        C797   1.403       .  A
C796        H801   1.083       .  S
C797        C798   1.419   1_545  A
C798        C802   1.518       .  S
C799        C804   1.413       .  A
C799        C808   1.399       .  A
C800        F816   1.382       .  S
C800        F817   1.382       .  S
C800        F818   1.385       .  S
C802        F813   1.384       .  S
C802        F814   1.383       .  S
C802        F815   1.381       .  S
C804        C805   1.409       .  A
C804        C809   1.519       .  S
C805        C806   1.409       .  A
C805        H810   1.082       .  S
C806        C807   1.428       .  A
C807        C808   1.408       .  A
C807        C811   1.522       .  S
C808        H812   1.083       .  S
C809        F822   1.384       .  S
C809        F823   1.382   1_545  S
C809        F824   1.382       .  S
C811        F819   1.385       .  S
C811        F820   1.384       .  S
C811        F821   1.383       .  S
C825        C826   1.400       .  A
C825        C830   1.408       .  A
C825        H835   1.084       .  S
C826        C827   1.413       .  A
C826        C831   1.483       .  S
C827        C828   1.405       .  A
C827        C832   1.519       .  S
C828        C829   1.407       .  A
C828        H833   1.082       .  S
C829        C830   1.425       .  A
C830        C834   1.521       .  S
C831        C836   1.416       .  A
C831        C840   1.402   1_565  A
C832        F848   1.382   1_565  S
C832        F849   1.382       .  S
C832        F850   1.384       .  S
C834        F845   1.383       .  S
C834        F846   1.385       .  S
C834        F847   1.384       .  S
C836        C837   1.403       .  A
C836        C841   1.520       .  S
C837        C838   1.402       .  A
C837        H842   1.081       .  S
C838        C839   1.417   1_565  A
C839        C840   1.408       .  A
C839        C843   1.518       .  S
C840        H844   1.083       .  S
C841        F854   1.385       .  S
C841        F855   1.382       .  S
C841        F856   1.382       .  S
C843        F851   1.384       .  S
C843        F852   1.382       .  S
C843        F853   1.382       .  S
C857        C858   1.400       .  A
C857        C862   1.406       .  A
C857        H867   1.084       .  S
C858        C859   1.415       .  A
C858        C863   1.488       .  S
C859        C860   1.412       .  A
C859        C864   1.519       .  S
C860        C861   1.409       .  A
C860        H865   1.083       .  S
C861        C862   1.423       .  A
C862        C866   1.519       .  S
C863        C868   1.417       .  A
C863        C872   1.402   1_554  A
C864        F880   1.383   1_554  S
C864        F881   1.381       .  S
C864        F882   1.385       .  S
C866        F877   1.382       .  S
C866        F878   1.385   1_554  S
C866        F879   1.384   1_554  S
C868        C869   1.407       .  A
C868        C873   1.520       .  S
C869        C870   1.403       .  A
C869        H874   1.083       .  S
C870        C871   1.421   1_554  A
C871        C872   1.409       .  A
C871        C875   1.520       .  S
C872        H876   1.085       .  S
C873        F886   1.384       .  S
C873        F887   1.382       .  S
C873        F888   1.381       .  S
C875        F883   1.384       .  S
C875        F884   1.381       .  S
C875        F885   1.382       .  S
C889        C890   1.400       .  A
C889        C894   1.401       .  A
C889        H899   1.085       .  S
C890        C891   1.415   1_554  A
C890        C895   1.483       .  S
C891        C892   1.408       .  A
C891        C896   1.517       .  S
C892        C893   1.404   1_556  A
C892        H897   1.082       .  S
C893        C894   1.418       .  A
C894        C898   1.518       .  S
C895        C900   1.413       .  A
C895        C904   1.398       .  A
C896        F912   1.382       .  S
C896        F913   1.382       .  S
C896        F914   1.384       .  S
C898        F909   1.382       .  S
C898        F910   1.384       .  S
C898        F911   1.382       .  S
C900        C901   1.405       .  A
C900        C905   1.522   1_554  S
C901        C902   1.412       .  A
C901        H906   1.082       .  S
C902        C903   1.430       .  A
C903        C904   1.410       .  A
C903        C907   1.519       .  S
C904        H908   1.083       .  S
C905        F918   1.385       .  S
C905        F919   1.382   1_556  S
C905        F920   1.382       .  S
C907        F915   1.385       .  S
C907        F916   1.381       .  S
C907        F917   1.383       .  S
C921        C922   1.400       .  A
C921        C926   1.414       .  A
C921        H931   1.083   1_545  S
C922        C923   1.412       .  A
C922        C927   1.488       .  S
C923        C924   1.405       .  A
C923        C928   1.521       .  S
C924        C925   1.412       .  A
C924        H929   1.081       .  S
C925        C926   1.431       .  A
C926        C930   1.521       .  S
C927        C932   1.416   1_545  A
C927        C936   1.402       .  A
C928        F944   1.382       .  S
C928        F945   1.382       .  S
C928        F946   1.384       .  S
C930        F941   1.383   1_545  S
C930        F942   1.385   1_545  S
C930        F943   1.383       .  S
C932        C933   1.408       .  A
C932        C937   1.518       .  S
C933        C934   1.405   1_565  A
C933        H938   1.083       .  S
C934        C935   1.419       .  A
C935        C936   1.408       .  A
C935        C939   1.520       .  S
C936        H940   1.083       .  S
C937        F950   1.384       .  S
C937        F951   1.382       .  S
C937        F952   1.382       .  S
C939        F947   1.381       .  S
C939        F948   1.383       .  S
C939        F949   1.385       .  S
C953        C954   1.399       .  A
C953        C958   1.402       .  A
C953        H963   1.084       .  S
C954        C955   1.413       .  A
C954        C959   1.481       .  S
C955        C956   1.410       .  A
C955        C960   1.518       .  S
C956        C957   1.408       .  A
C956        H961   1.083       .  S
C957        C958   1.424       .  A
C958        C962   1.523       .  S
C959        C964   1.416       .  A
C959        C968   1.400   1_545  A
C960        F976   1.382   1_545  S
C960        F977   1.382       .  S
C960        F978   1.384       .  S
C962        F973   1.384       .  S
C962        F974   1.385       .  S
C962        F975   1.383       .  S
C964        C965   1.405       .  A
C964        C969   1.520       .  S
C965        C966   1.404       .  A
C965        H970   1.081       .  S
C966        C967   1.419   1_545  A
C967        C968   1.402       .  A
C967        C971   1.517       .  S
C968        H972   1.085       .  S
C969        F982   1.385       .  S
C969        F983   1.382       .  S
C969        F984   1.381       .  S
C971        F979   1.383       .  S
C971        F980   1.379       .  S
C971        F981   1.383       .  S
C985        C986   1.403       .  A
C985        C990   1.417       .  A
C985        H995   1.083       .  S
C986        C987   1.414       .  A
C986        C991   1.492       .  S
C987        C988   1.406       .  A
C987        C992   1.522       .  S
C988        C989   1.410       .  A
C988        H993   1.082       .  S
C989        C990   1.428       .  A
C990        C994   1.520       .  S
C991        C996   1.416       .  A
C991       C1000   1.400       .  A
C992       F1008   1.382       .  S
C992       F1009   1.381   1_556  S
C992       F1010   1.384   1_556  S
C994       F1005   1.383       .  S
C994       F1006   1.385       .  S
C994       F1007   1.384       .  S
C996        C997   1.414       .  A
C996       C1001   1.517   1_556  S
C997        C998   1.408       .  A
C997       H1002   1.081   1_556  S
C998        C999   1.421       .  A
C999       C1000   1.405       .  A
C999       C1003   1.517       .  S
C1000      H1004   1.084       .  S
C1001      F1014   1.385       .  S
C1001      F1015   1.383   1_554  S
C1001      F1016   1.382       .  S
C1003      F1011   1.384       .  S
C1003      F1012   1.383       .  S
C1003      F1013   1.382       .  S
C1017      C1018   1.399       .  A
C1017      C1022   1.411       .  A
C1017      H1027   1.083       .  S
C1018      C1019   1.412       .  A
C1018      C1023   1.485       .  S
C1019      C1020   1.406       .  A
C1019      C1024   1.522       .  S
C1020      C1021   1.413       .  A
C1020      H1025   1.082       .  S
C1021      C1022   1.431       .  A
C1022      C1026   1.522       .  S
C1023      C1028   1.415   1_556  A
C1023      C1032   1.403       .  A
C1024      F1040   1.382       .  S
C1024      F1041   1.382       .  S
C1024      F1042   1.384       .  S
C1026      F1037   1.383   1_556  S
C1026      F1038   1.385   1_556  S
C1026      F1039   1.383       .  S
C1028      C1029   1.404       .  A
C1028      C1033   1.520       .  S
C1029      C1030   1.404   1_554  A
C1029      H1034   1.081       .  S
C1030      C1031   1.418       .  A
C1031      C1032   1.409       .  A
C1031      C1035   1.519       .  S
C1032      H1036   1.083       .  S
C1033      F1046   1.384       .  S
C1033      F1047   1.382       .  S
C1033      F1048   1.382       .  S
C1035      F1043   1.381       .  S
C1035      F1044   1.382       .  S
C1035      F1045   1.384       .  S
C1049      C1050   1.398       .  A
C1049      C1054   1.399       .  A
C1049      H1059   1.085       .  S
C1050      C1051   1.413       .  A
C1050      C1055   1.478       .  S
C1051      C1052   1.407       .  A
C1051      C1056   1.518       .  S
C1052      C1053   1.405       .  A
C1052      H1057   1.083       .  S
C1053      C1054   1.419       .  A
C1054      C1058   1.520       .  S
C1055      C1060   1.413       .  A
C1055      C1064   1.397       .  A
C1056      F1072   1.382       .  S
C1056      F1073   1.383       .  S
C1056      F1074   1.384       .  S
C1058      F1069   1.383       .  S
C1058      F1070   1.383       .  S
C1058      F1071   1.379       .  S
C1060      C1061   1.401       .  A
C1060      C1065   1.524       .  S
C1061      C1062   1.410       .  A
C1061      H1066   1.082       .  S
C1062      C1063   1.430       .  A
C1063      C1064   1.409       .  A
C1063      C1067   1.521       .  S
C1064      H1068   1.083       .  S
C1065      F1078   1.385       .  S
C1065      F1079   1.382       .  S
C1065      F1080   1.382       .  S
C1067      F1075   1.382       .  S
C1067      F1076   1.383       .  S
C1067      F1077   1.385       .  S
C1081      C1082   1.398       .  A
C1081      C1086   1.407       .  A
C1081      H1091   1.084       .  S
C1082      C1083   1.414       .  A
C1082      C1087   1.488       .  S
C1083      C1084   1.411       .  A
C1083      C1088   1.518       .  S
C1084      C1085   1.410       .  A
C1084      H1089   1.082       .  S
C1085      C1086   1.429       .  A
C1086      C1090   1.522       .  S
C1087      C1092   1.417       .  A
C1087      C1096   1.401   1_565  A
C1088      F1104   1.383   1_565  S
C1088      F1105   1.381       .  S
C1088      F1106   1.384       .  S
C1090      F1101   1.383       .  S
C1090      F1102   1.385       .  S
C1090      F1103   1.384       .  S
C1092      C1093   1.408       .  A
C1092      C1097   1.519       .  S
C1093      C1094   1.403   1_565  A
C1093      H1098   1.082       .  S
C1094      C1095   1.420       .  A
C1095      C1096   1.407       .  A
C1095      C1099   1.518       .  S
C1096      H1100   1.085       .  S
C1097      F1110   1.384       .  S
C1097      F1111   1.382       .  S
C1097      F1112   1.381       .  S
C1099      F1107   1.384       .  S
C1099      F1108   1.383       .  S
C1099      F1109   1.380       .  S
C1113      C1114   1.400       .  A
C1113      C1118   1.403       .  A
C1113      H1123   1.085       .  S
C1114      C1115   1.413       .  A
C1114      C1119   1.481       .  S
C1115      C1116   1.405       .  A
C1115      C1120   1.518       .  S
C1116      C1117   1.404       .  A
C1116      H1121   1.083       .  S
C1117      C1118   1.419       .  A
C1118      C1122   1.518       .  S
C1119      C1124   1.414       .  A
C1119      C1128   1.401       .  A
C1120      F1136   1.382       .  S
C1120      F1137   1.382       .  S
C1120      F1138   1.384       .  S
C1122      F1133   1.384       .  S
C1122      F1134   1.383       .  S
C1122      F1135   1.379       .  S
C1124      C1125   1.402       .  A
C1124      C1129   1.523       .  S
C1125      C1126   1.408       .  A
C1125      H1130   1.083       .  S
C1126      C1127   1.423       .  A
C1127      C1128   1.410       .  A
C1127      C1131   1.518       .  S
C1128      H1132   1.083       .  S
C1129      F1142   1.385       .  S
C1129      F1143   1.382       .  S
C1129      F1144   1.382       .  S
C1131      F1139   1.383       .  S
C1131      F1140   1.383       .  S
C1131      F1141   1.385       .  S
C1145      C1146   1.399       .  A
C1145      C1150   1.401       .  A
C1145      H1155   1.085       .  S
C1146      C1147   1.415   1_565  A
C1146      C1151   1.482       .  S
C1147      C1148   1.408       .  A
C1147      C1152   1.518       .  S
C1148      C1149   1.404   1_545  A
C1148      H1153   1.081       .  S
C1149      C1150   1.418       .  A
C1150      C1154   1.518       .  S
C1151      C1156   1.413       .  A
C1151      C1160   1.399       .  A
C1152      F1168   1.382       .  S
C1152      F1169   1.383       .  S
C1152      F1170   1.385       .  S
C1154      F1165   1.383       .  S
C1154      F1166   1.383       .  S
C1154      F1167   1.381       .  S
C1156      C1157   1.402       .  A
C1156      C1161   1.523       .  S
C1157      C1158   1.410       .  A
C1157      H1162   1.081       .  S
C1158      C1159   1.430       .  A
C1159      C1160   1.412       .  A
C1159      C1163   1.521       .  S
C1160      H1164   1.083       .  S
C1161      F1174   1.384       .  S
C1161      F1175   1.382       .  S
C1161      F1176   1.382   1_565  S
C1163      F1171   1.385       .  S
C1163      F1172   1.383       .  S
C1163      F1173   1.383       .  S
C1177      C1178   1.401       .  A
C1177      C1182   1.406       .  A
C1177      H1187   1.085       .  S
C1178      C1179   1.414       .  A
C1178      C1183   1.486       .  S
C1179      C1180   1.408       .  A
C1179      C1184   1.518       .  S
C1180      C1181   1.405       .  A
C1180      H1185   1.083       .  S
C1181      C1182   1.420       .  A
C1182      C1186   1.517       .  S
C1183      C1188   1.413       .  A
C1183      C1192   1.399       .  A
C1184      F1200   1.383       .  S
C1184      F1201   1.382       .  S
C1184      F1202   1.384       .  S
C1186      F1197   1.383       .  S
C1186      F1198   1.384       .  S
C1186      F1199   1.379       .  S
C1188      C1189   1.406       .  A
C1188      C1193   1.522       .  S
C1189      C1190   1.413       .  A
C1189      H1194   1.082       .  S
C1190      C1191   1.429       .  A
C1191      C1192   1.412       .  A
C1191      C1195   1.521       .  S
C1192      H1196   1.083       .  S
C1193      F1206   1.385       .  S
C1193      F1207   1.382       .  S
C1193      F1208   1.382       .  S
C1195      F1203   1.385       .  S
C1195      F1204   1.384       .  S
C1195      F1205   1.383       .  S
C1209      C1210   1.401       .  A
C1209      C1214   1.406       .  A
C1209      H1219   1.085       .  S
C1210      C1211   1.413       .  A
C1210      C1215   1.484       .  S
C1211      C1212   1.405       .  A
C1211      C1216   1.520       .  S
C1212      C1213   1.406       .  A
C1212      H1217   1.082       .  S
C1213      C1214   1.422       .  A
C1214      C1218   1.519       .  S
C1215      C1220   1.412       .  A
C1215      C1224   1.401       .  A
C1216      F1232   1.382       .  S
C1216      F1233   1.382       .  S
C1216      F1234   1.385       .  S
C1218      F1229   1.383       .  S
C1218      F1230   1.383       .  S
C1218      F1231   1.378       .  S
C1220      C1221   1.404       .  A
C1220      C1225   1.523       .  S
C1221      C1222   1.412       .  A
C1221      H1226   1.082       .  S
C1222      C1223   1.425       .  A
C1223      C1224   1.411       .  A
C1223      C1227   1.519       .  S
C1224      H1228   1.083       .  S
C1225      F1238   1.385       .  S
C1225      F1239   1.382       .  S
C1225      F1240   1.382       .  S
C1227      F1235   1.383       .  S
C1227      F1236   1.383       .  S
C1227      F1237   1.385       .  S
C1241      C1242   1.399       .  A
C1241      C1246   1.407       .  A
C1241      H1251   1.084       .  S
C1242      C1243   1.415       .  A
C1242      C1247   1.486       .  S
C1243      C1244   1.411       .  A
C1243      C1248   1.519       .  S
C1244      C1245   1.407       .  A
C1244      H1249   1.083       .  S
C1245      C1246   1.424       .  A
C1246      C1250   1.520       .  S
C1247      C1252   1.416       .  A
C1247      C1256   1.401       .  A
C1248      F1264   1.383       .  S
C1248      F1265   1.382       .  S
C1248      F1266   1.384       .  S
C1250      F1261   1.385       .  S
C1250      F1262   1.384       .  S
C1250      F1263   1.382       .  S
C1252      C1253   1.406       .  A
C1252      C1257   1.520       .  S
C1253      C1254   1.404       .  A
C1253      H1258   1.082       .  S
C1254      C1255   1.419       .  A
C1255      C1256   1.409       .  A
C1255      C1259   1.518       .  S
C1256      H1260   1.083       .  S
C1257      F1270   1.385       .  S
C1257      F1271   1.382       .  S
C1257      F1272   1.382       .  S
C1259      F1267   1.385       .  S
C1259      F1268   1.383       .  S
C1259      F1269   1.381       .  S
C1273      C1274   1.400       .  A
C1273      C1278   1.401       .  A
C1273      H1283   1.085       .  S
C1274      C1275   1.416       .  A
C1274      C1279   1.484       .  S
C1275      C1276   1.410       .  A
C1275      C1280   1.519       .  S
C1276      C1277   1.406       .  A
C1276      H1281   1.084       .  S
C1277      C1278   1.416       .  A
C1278      C1282   1.515       .  S
C1279      C1284   1.414       .  A
C1279      C1288   1.400       .  A
C1280      F1296   1.382       .  S
C1280      F1297   1.381       .  S
C1280      F1298   1.385       .  S
C1282      F1293   1.383       .  S
C1282      F1294   1.383       .  S
C1282      F1295   1.380       .  S
C1284      C1285   1.407       .  A
C1284      C1289   1.522       .  S
C1285      C1286   1.410       .  A
C1285      H1290   1.083       .  S
C1286      C1287   1.426       .  A
C1287      C1288   1.410       .  A
C1287      C1291   1.520       .  S
C1288      H1292   1.083       .  S
C1289      F1302   1.384       .  S
C1289      F1303   1.382       .  S
C1289      F1304   1.381       .  S
C1291      F1299   1.385       .  S
C1291      F1300   1.384       .  S
C1291      F1301   1.383       .  S
C1305      C1306   1.401   1_554  A
C1305      C1310   1.405       .  A
C1305      H1315   1.085       .  S
C1306      C1307   1.417       .  A
C1306      C1311   1.487       .  S
C1307      C1308   1.407       .  A
C1307      C1312   1.518       .  S
C1308      C1309   1.403       .  A
C1308      H1313   1.082       .  S
C1309      C1310   1.419   1_556  A
C1310      C1314   1.517       .  S
C1311      C1316   1.414       .  A
C1311      C1320   1.399       .  A
C1312      F1328   1.382       .  S
C1312      F1329   1.382       .  S
C1312      F1330   1.385       .  S
C1314      F1325   1.384       .  S
C1314      F1326   1.383       .  S
C1314      F1327   1.381       .  S
C1316      C1317   1.411       .  A
C1316      C1321   1.518       .  S
C1317      C1318   1.409       .  A
C1317      H1322   1.083       .  S
C1318      C1319   1.424       .  A
C1319      C1320   1.406       .  A
C1319      C1323   1.518       .  S
C1320      H1324   1.084       .  S
C1321      F1334   1.384       .  S
C1321      F1335   1.382   1_556  S
C1321      F1336   1.381       .  S
C1323      F1331   1.385       .  S
C1323      F1332   1.382       .  S
C1323      F1333   1.384       .  S
C1337      C1338   1.399       .  A
C1337      C1342   1.410       .  A
C1337      H1347   1.083       .  S
C1338      C1339   1.414       .  A
C1338      C1343   1.483       .  S
C1339      C1340   1.404       .  A
C1339      C1344   1.523       .  S
C1340      C1341   1.411       .  A
C1340      H1345   1.082       .  S
C1341      C1342   1.429       .  A
C1342      C1346   1.520       .  S
C1343      C1348   1.415       .  A
C1343      C1352   1.398       .  A
C1344      F1360   1.382       .  S
C1344      F1361   1.382       .  S
C1344      F1362   1.384       .  S
C1346      F1357   1.384       .  S
C1346      F1358   1.385       .  S
C1346      F1359   1.383       .  S
C1348      C1349   1.409       .  A
C1348      C1353   1.518       .  S
C1349      C1350   1.406       .  A
C1349      H1354   1.082       .  S
C1350      C1351   1.422       .  A
C1351      C1352   1.400       .  A
C1351      C1355   1.521       .  S
C1352      H1356   1.085       .  S
C1353      F1366   1.385       .  S
C1353      F1367   1.382       .  S
C1353      F1368   1.382       .  S
C1355      F1363   1.383       .  S
C1355      F1364   1.379       .  S
C1355      F1365   1.384       .  S
C1369      C1370   1.400       .  A
C1369      C1374   1.411       .  A
C1369      H1379   1.083       .  S
C1370      C1371   1.413       .  A
C1370      C1375   1.485       .  S
C1371      C1372   1.404       .  A
C1371      C1376   1.523       .  S
C1372      C1373   1.412       .  A
C1372      H1377   1.081       .  S
C1373      C1374   1.429       .  A
C1374      C1378   1.521       .  S
C1375      C1380   1.414       .  A
C1375      C1384   1.402       .  A
C1376      F1392   1.382       .  S
C1376      F1393   1.383       .  S
C1376      F1394   1.384       .  S
C1378      F1389   1.385       .  S
C1378      F1390   1.383       .  S
C1378      F1391   1.384       .  S
C1380      C1381   1.405       .  A
C1380      C1385   1.519       .  S
C1381      C1382   1.405       .  A
C1381      H1386   1.082       .  S
C1382      C1383   1.420       .  A
C1383      C1384   1.406       .  A
C1383      C1387   1.519       .  S
C1384      H1388   1.085       .  S
C1385      F1398   1.384       .  S
C1385      F1399   1.382       .  S
C1385      F1400   1.383       .  S
C1387      F1395   1.383       .  S
C1387      F1396   1.379       .  S
C1387      F1397   1.384       .  S
C1401      C1402   1.400       .  A
C1401      C1406   1.406       .  A
C1401      H1411   1.084       .  S
C1402      C1403   1.413       .  A
C1402      C1407   1.484       .  S
C1403      C1404   1.408       .  A
C1403      C1408   1.519       .  S
C1404      C1405   1.409       .  A
C1404      H1409   1.083       .  S
C1405      C1406   1.424       .  A
C1406      C1410   1.520       .  S
C1407      C1412   1.417       .  A
C1407      C1416   1.400   1_556  A
C1408      F1424   1.383       .  S
C1408      F1425   1.382       .  S
C1408      F1426   1.385       .  S
C1410      F1421   1.385       .  S
C1410      F1422   1.384   1_556  S
C1410      F1423   1.382       .  S
C1412      C1413   1.407       .  A
C1412      C1417   1.520       .  S
C1413      C1414   1.403       .  A
C1413      H1418   1.083       .  S
C1414      C1415   1.420   1_556  A
C1415      C1416   1.407       .  A
C1415      C1419   1.519       .  S
C1416      H1420   1.083       .  S
C1417      F1430   1.384       .  S
C1417      F1431   1.382       .  S
C1417      F1432   1.382       .  S
C1419      F1427   1.384       .  S
C1419      F1428   1.383       .  S
C1419      F1429   1.381       .  S
C1433      C1434   1.405       .  A
C1433      C1438   1.412       .  A
C1433      H1443   1.083       .  S
C1434      C1435   1.415       .  A
C1434      C1439   1.494       .  S
C1435      C1436   1.410       .  A
C1435      C1440   1.519       .  S
C1436      C1437   1.406       .  A
C1436      H1441   1.083       .  S
C1437      C1438   1.419       .  A
C1438      C1442   1.519       .  S
C1439      C1444   1.414       .  A
C1439      C1448   1.402       .  A
C1440      F1456   1.383       .  S
C1440      F1457   1.381       .  S
C1440      F1458   1.384       .  S
C1442      F1453   1.385       .  S
C1442      F1454   1.381       .  S
C1442      F1455   1.382       .  S
C1444      C1445   1.406       .  A
C1444      C1449   1.519       .  S
C1445      C1446   1.411       .  A
C1445      H1450   1.082       .  S
C1446      C1447   1.429       .  A
C1447      C1448   1.416       .  A
C1447      C1451   1.519       .  S
C1448      H1452   1.083       .  S
C1449      F1462   1.385       .  S
C1449      F1463   1.379       .  S
C1449      F1464   1.381       .  S
C1451      F1459   1.383       .  S
C1451      F1460   1.383       .  S
C1451      F1461   1.385       .  S
C1465      C1466   1.405       .  A
C1465      C1470   1.414       .  A
C1465      H1475   1.083       .  S
C1466      C1467   1.417       .  A
C1466      C1471   1.495       .  S
C1467      C1468   1.407       .  A
C1467      C1472   1.520       .  S
C1468      C1469   1.403       .  A
C1468      H1473   1.080       .  S
C1469      C1470   1.419       .  A
C1470      C1474   1.518       .  S
C1471      C1476   1.415       .  A
C1471      C1480   1.401       .  A
C1472      F1488   1.382       .  S
C1472      F1489   1.382       .  S
C1472      F1490   1.384       .  S
C1474      F1485   1.381       .  S
C1474      F1486   1.385       .  S
C1474      F1487   1.381       .  S
C1476      C1477   1.411       .  A
C1476      C1481   1.518       .  S
C1477      C1478   1.410       .  A
C1477      H1482   1.082       .  S
C1478      C1479   1.429       .  A
C1479      C1480   1.412       .  A
C1479      C1483   1.521       .  S
C1480      H1484   1.083       .  S
C1481      F1494   1.384       .  S
C1481      F1495   1.382       .  S
C1481      F1496   1.382       .  S
C1483      F1491   1.383       .  S
C1483      F1492   1.383       .  S
C1483      F1493   1.385       .  S
C1497      C1498   1.399       .  A
C1497      C1502   1.404       .  A
C1497      H1507   1.085       .  S
C1498      C1499   1.414       .  A
C1498      C1503   1.486       .  S
C1499      C1500   1.409       .  A
C1499      C1504   1.518       .  S
C1500      C1501   1.405       .  A
C1500      H1505   1.080       .  S
C1501      C1502   1.421       .  A
C1502      C1506   1.518       .  S
C1503      C1508   1.414       .  A
C1503      C1512   1.400       .  A
C1504      F1520   1.383       .  S
C1504      F1521   1.383       .  S
C1504      F1522   1.384       .  S
C1506      F1517   1.383       .  S
C1506      F1518   1.383       .  S
C1506      F1519   1.379       .  S
C1508      C1509   1.404       .  A
C1508      C1513   1.522       .  S
C1509      C1510   1.410       .  A
C1509      H1514   1.082       .  S
C1510      C1511   1.429       .  A
C1511      C1512   1.413       .  A
C1511      C1515   1.521       .  S
C1512      H1516   1.083       .  S
C1513      F1526   1.385       .  S
C1513      F1527   1.382       .  S
C1513      F1528   1.382       .  S
C1515      F1523   1.383       .  S
C1515      F1524   1.383       .  S
C1515      F1525   1.385       .  S
C1529      C1530   1.400       .  A
C1529      C1534   1.402       .  A
C1529      H1539   1.086       .  S
C1530      C1531   1.417       .  A
C1530      C1535   1.483       .  S
C1531      C1532   1.407       .  A
C1531      C1536   1.521       .  S
C1532      C1533   1.404       .  A
C1532      H1537   1.083       .  S
C1533      C1534   1.420       .  A
C1534      C1538   1.515       .  S
C1535      C1540   1.416       .  A
C1535      C1544   1.398       .  A
C1536      F1552   1.380       .  S
C1536      F1553   1.383       .  S
C1536      F1554   1.384       .  S
C1538      F1549   1.384       .  S
C1538      F1550   1.383       .  S
C1538      F1551   1.381       .  S
C1540      C1541   1.412       .  A
C1540      C1545   1.517       .  S
C1541      C1542   1.407       .  A
C1541      H1546   1.083       .  S
C1542      C1543   1.417       .  A
C1543      C1544   1.398       .  A
C1543      C1547   1.516       .  S
C1544      H1548   1.084       .  S
C1545      F1558   1.385       .  S
C1545      F1559   1.382       .  S
C1545      F1560   1.382       .  S
C1547      F1555   1.385       .  S
C1547      F1556   1.378       .  S
C1547      F1557   1.384       .  S
C1561      C1562   1.400       .  A
C1561      C1566   1.405       .  A
C1561      H1571   1.085       .  S
C1562      C1563   1.417       .  A
C1562      C1567   1.486       .  S
C1563      C1564   1.408       .  A
C1563      C1568   1.519       .  S
C1564      C1565   1.403       .  A
C1564      H1569   1.083       .  S
C1565      C1566   1.420       .  A
C1566      C1570   1.517       .  S
C1567      C1572   1.414       .  A
C1567      C1576   1.399       .  A
C1568      F1584   1.382       .  S
C1568      F1585   1.382       .  S
C1568      F1586   1.385       .  S
C1570      F1581   1.384       .  S
C1570      F1582   1.383       .  S
C1570      F1583   1.381       .  S
C1572      C1573   1.410       .  A
C1572      C1577   1.518       .  S
C1573      C1574   1.408       .  A
C1573      H1578   1.083       .  S
C1574      C1575   1.426       .  A
C1575      C1576   1.407       .  A
C1575      C1579   1.522       .  S
C1576      H1580   1.084       .  S
C1577      F1590   1.384       .  S
C1577      F1591   1.382       .  S
C1577      F1592   1.381       .  S
C1579      F1587   1.385       .  S
C1579      F1588   1.384       .  S
C1579      F1589   1.383       .  S
C1593      C1594   1.404       .  A
C1593      C1598   1.413       .  A
C1593      H1603   1.083       .  S
C1594      C1595   1.416       .  A
C1594      C1599   1.490       .  S
C1595      C1596   1.405       .  A
C1595      C1600   1.520       .  S
C1596      C1597   1.403       .  A
C1596      H1601   1.082       .  S
C1597      C1598   1.420       .  A
C1598      C1602   1.520       .  S
C1599      C1604   1.415       .  A
C1599      C1608   1.401       .  A
C1600      F1616   1.383       .  S
C1600      F1617   1.382       .  S
C1600      F1618   1.384       .  S
C1602      F1613   1.381       .  S
C1602      F1614   1.385       .  S
C1602      F1615   1.382       .  S
C1604      C1605   1.410       .  A
C1604      C1609   1.519       .  S
C1605      C1606   1.406       .  A
C1605      H1610   1.083       .  S
C1606      C1607   1.423       .  A
C1607      C1608   1.410       .  A
C1607      C1611   1.519       .  S
C1608      H1612   1.083       .  S
C1609      F1622   1.384       .  S
C1609      F1623   1.383       .  S
C1609      F1624   1.382       .  S
C1611      F1619   1.384       .  S
C1611      F1620   1.382       .  S
C1611      F1621   1.385       .  S
C1625      C1626   1.398       .  A
C1625      C1630   1.405       .  A
C1625      H1635   1.083       .  S
C1626      C1627   1.412       .  A
C1626      C1631   1.486       .  S
C1627      C1628   1.413       .  A
C1627      C1632   1.520       .  S
C1628      C1629   1.413       .  A
C1628      H1633   1.082       .  S
C1629      C1630   1.429       .  A
C1630      C1634   1.524       .  S
C1631      C1636   1.416       .  A
C1631      C1640   1.402       .  A
C1632      F1648   1.382       .  S
C1632      F1649   1.381       .  S
C1632      F1650   1.384       .  S
C1634      F1645   1.385       .  S
C1634      F1646   1.384       .  S
C1634      F1647   1.383       .  S
C1636      C1637   1.407       .  A
C1636      C1641   1.519       .  S
C1637      C1638   1.404       .  A
C1637      H1642   1.083       .  S
C1638      C1639   1.420       .  A
C1639      C1640   1.406       .  A
C1639      C1643   1.517       .  S
C1640      H1644   1.085       .  S
C1641      F1654   1.385       .  S
C1641      F1655   1.382       .  S
C1641      F1656   1.380       .  S
C1643      F1651   1.383       .  S
C1643      F1652   1.379       .  S
C1643      F1653   1.384       .  S
C1657      C1658   1.400       .  A
C1657      C1662   1.401       .  A
C1657      H1667   1.085       .  S
C1658      C1659   1.414       .  A
C1658      C1663   1.482       .  S
C1659      C1660   1.408       .  A
C1659      C1664   1.518       .  S
C1660      C1661   1.405       .  A
C1660      H1665   1.080       .  S
C1661      C1662   1.419       .  A
C1662      C1666   1.519       .  S
C1663      C1668   1.412       .  A
C1663      C1672   1.401       .  A
C1664      F1680   1.382       .  S
C1664      F1681   1.382       .  S
C1664      F1682   1.385       .  S
C1666      F1677   1.383       .  S
C1666      F1678   1.384       .  S
C1666      F1679   1.381       .  S
C1668      C1669   1.402       .  A
C1668      C1673   1.523       .  S
C1669      C1670   1.412       .  A
C1669      H1674   1.081       .  S
C1670      C1671   1.427       .  A
C1671      C1672   1.412       .  A
C1671      C1675   1.519       .  S
C1672      H1676   1.083       .  S
C1673      F1686   1.385       .  S
C1673      F1687   1.382       .  S
C1673      F1688   1.382       .  S
C1675      F1683   1.383       .  S
C1675      F1684   1.384       .  S
C1675      F1685   1.385       .  S
C1689      C1690   1.403       .  A
C1689      C1694   1.408       .  A
C1689      H1699   1.083       .  S
C1690      C1691   1.417       .  A
C1690      C1695   1.485       .  S
C1691      C1692   1.405       .  A
C1691      C1696   1.520       .  S
C1692      C1693   1.402       .  A
C1692      H1697   1.082       .  S
C1693      C1694   1.417       .  A
C1694      C1698   1.519       .  S
C1695      C1700   1.413       .  A
C1695      C1704   1.399       .  A
C1696      F1712   1.382       .  S
C1696      F1713   1.382       .  S
C1696      F1714   1.385       .  S
C1698      F1709   1.382       .  S
C1698      F1710   1.384       .  S
C1698      F1711   1.383       .  S
C1700      C1701   1.410       .  A
C1700      C1705   1.519       .  S
C1701      C1702   1.410       .  A
C1701      H1706   1.083       .  S
C1702      C1703   1.426       .  A
C1703      C1704   1.406       .  A
C1703      C1707   1.521       .  S
C1704      H1708   1.084       .  S
C1705      F1718   1.385       .  S
C1705      F1719   1.382       .  S
C1705      F1720   1.382       .  S
C1707      F1715   1.383       .  S
C1707      F1716   1.383       .  S
C1707      F1717   1.385       .  S
C1721      C1722   1.400       .  A
C1721      C1726   1.404       .  A
C1721      H1731   1.083       .  S
C1722      C1723   1.417       .  A
C1722      C1727   1.481       .  S
C1723      C1724   1.406       .  A
C1723      C1728   1.519       .  S
C1724      C1725   1.403       .  A
C1724      H1729   1.083       .  S
C1725      C1726   1.418       .  A
C1726      C1730   1.521       .  S
C1727      C1732   1.414       .  A
C1727      C1736   1.399       .  A
C1728      F1744   1.382       .  S
C1728      F1745   1.382       .  S
C1728      F1746   1.385       .  S
C1730      F1741   1.382       .  S
C1730      F1742   1.384       .  S
C1730      F1743   1.383       .  S
C1732      C1733   1.407       .  A
C1732      C1737   1.520       .  S
C1733      C1734   1.407       .  A
C1733      H1738   1.083       .  S
C1734      C1735   1.423       .  A
C1735      C1736   1.405       .  A
C1735      C1739   1.520       .  S
C1736      H1740   1.084       .  S
C1737      F1750   1.384       .  S
C1737      F1751   1.382       .  S
C1737      F1752   1.382       .  S
C1739      F1747   1.385       .  S
C1739      F1748   1.383       .  S
C1739      F1749   1.383       .  S
C1753      C1754   1.400       .  A
C1753      C1758   1.402       .  A
C1753      H1763   1.085       .  S
C1754      C1755   1.415       .  A
C1754      C1759   1.484       .  S
C1755      C1756   1.408       .  A
C1755      C1760   1.517       .  S
C1756      C1757   1.403       .  A
C1756      H1761   1.082       .  S
C1757      C1758   1.419       .  A
C1758      C1762   1.519       .  S
C1759      C1764   1.413       .  A
C1759      C1768   1.398       .  A
C1760      F1776   1.382       .  S
C1760      F1777   1.383       .  S
C1760      F1778   1.385       .  S
C1762      F1773   1.383       .  S
C1762      F1774   1.384       .  S
C1762      F1775   1.382       .  S
C1764      C1765   1.403       .  A
C1764      C1769   1.522       .  S
C1765      C1766   1.411       .  A
C1765      H1770   1.081       .  S
C1766      C1767   1.431       .  A
C1767      C1768   1.412       .  A
C1767      C1771   1.519       .  S
C1768      H1772   1.083       .  S
C1769      F1782   1.384       .  S
C1769      F1783   1.382       .  S
C1769      F1784   1.382       .  S
C1771      F1779   1.380       .  S
C1771      F1780   1.383       .  S
C1771      F1781   1.385       .  S
C1785      C1786   1.399       .  A
C1785      C1790   1.412       .  A
C1785      H1795   1.083       .  S
C1786      C1787   1.414       .  A
C1786      C1791   1.483       .  S
C1787      C1788   1.404       .  A
C1787      C1792   1.522       .  S
C1788      C1789   1.408       .  A
C1788      H1793   1.082       .  S
C1789      C1790   1.430       .  A
C1790      C1794   1.522       .  S
C1791      C1796   1.414       .  A
C1791      C1800   1.399       .  A
C1792      F1808   1.382       .  S
C1792      F1809   1.382       .  S
C1792      F1810   1.384       .  S
C1794      F1805   1.383       .  S
C1794      F1806   1.385       .  S
C1794      F1807   1.383       .  S
C1796      C1797   1.408       .  A
C1796      C1801   1.517       .  S
C1797      C1798   1.406       .  A
C1797      H1802   1.081       .  S
C1798      C1799   1.419       .  A
C1799      C1800   1.401       .  A
C1799      C1803   1.519       .  S
C1800      H1804   1.085       .  S
C1801      F1814   1.385       .  S
C1801      F1815   1.383       .  S
C1801      F1816   1.382       .  S
C1803      F1811   1.384       .  S
C1803      F1812   1.382       .  S
C1803      F1813   1.383       .  S
