geometry optimzed in LAMMPS
_audit_creation_date              2020-11-30 
_audit_creation_method            'lammps2cif' 
_symmetry_space_group_name_H-M    'P1' 
_symmetry_Int_Tables_number       1 
_symmetry_cell_setting            triclinic 
loop_ 
_symmetry_equiv_pos_as_xyz 
  x,y,z 
_cell_length_a                    28.34971771 
_cell_length_b                    28.61044992937342 
_cell_length_c                    30.019990631439608 
_cell_angle_alpha                 90.00091613854912 
_cell_angle_beta                  89.56158690803888 
_cell_angle_gamma                 89.78003088346895 
loop_ 
_atom_site_label 
_atom_site_type_symbol 
_atom_site_fract_x 
_atom_site_fract_y 
_atom_site_fract_z 
_atom_site_charge 
N1          N  0.59827293  0.45540185  0.05368794    -0.05600
N2          N  0.63228269  0.44887337  0.08271395    -0.57700
N3          N  0.54584636  0.40605762  0.44506725    -0.05200
N4          N  0.54781061  0.37122914  0.41655571    -0.59800
N5          N  0.57889584  0.43694118  0.43688094    -0.04800
N6          N  0.60397980  0.42405186  0.40206612    -0.57700
N7          N  0.56613563  0.42275357  0.05718073    -0.04500
N8          N  0.57683147  0.39359141  0.08916892    -0.60200
C9          C  0.61795692  0.41032539  0.10465515     0.96600
C10         C  0.58384944  0.38332992  0.38969737     0.96400
N11         N  0.40747467  0.44441204  0.46438918    -0.05700
N12         N  0.37370502  0.43884941  0.43493735    -0.58300
N13         N  0.45967147  0.41956465  0.06750395    -0.03900
N14         N  0.45653772  0.38939225  0.10033506    -0.59500
N15         N  0.42660571  0.45156319  0.07058594    -0.05800
N16         N  0.40027394  0.44422607  0.10599589    -0.58500
N17         N  0.43885248  0.41071471  0.46152886    -0.03500
N18         N  0.42722234  0.38116621  0.42992550    -0.59600
Mn19       Mn  0.50741076  0.41687212  0.01175734     1.18400
C20         C  0.38665891  0.39929788  0.41373743     0.98700
C21         C  0.41956388  0.40543990  0.12419658     0.99400
N22         N  0.58272796  0.54437652  0.42856314    -0.05800
N23         N  0.61063231  0.55117957  0.39393651    -0.62100
N24         N  0.55864692  0.59413067  0.05098536    -0.04600
N25         N  0.56288333  0.62458752  0.08324737    -0.62800
N26         N  0.59346310  0.56377209  0.05116974    -0.05300
N27         N  0.62305262  0.57351012  0.08361206    -0.62400
N28         N  0.54974626  0.57658915  0.43066200    -0.04200
N29         N  0.55378602  0.60544924  0.39690168    -0.63100
Mn30       Mn  0.59224921  0.49513673  0.48224077     1.10700
C31         C  0.59197332  0.58933176  0.37436584     0.99900
C32         C  0.60261680  0.61104373  0.10358104     1.00000
N33         N  0.42121140  0.55892447  0.06504213    -0.05300
N34         N  0.39729653  0.56575144  0.10228175    -0.60700
N35         N  0.44352274  0.58160273  0.44941829    -0.04600
N36         N  0.43381054  0.60745434  0.41470938    -0.57400
N37         N  0.41057644  0.55043954  0.45615044    -0.05900
N38         N  0.37759352  0.55396923  0.42574364    -0.60200
N39         N  0.45286536  0.59161647  0.05957742    -0.04900
N40         N  0.45180369  0.62107780  0.09305325    -0.57400
Mn41       Mn  0.41612200  0.50207239  0.01752620     1.20200
Mn42       Mn  0.50546411  0.58548052  0.48986503     1.10100
Cl43       Cl  0.50487508  0.50435814  0.00873430    -0.85400
C44         C  0.41709719  0.60465272  0.11957802     0.96900
C45         C  0.39287974  0.58963868  0.39998211     0.96700
N46         N  0.40979471  0.94563324  0.05533920    -0.05600
N47         N  0.37362421  0.92026471  0.06915073    -0.57700
N48         N  0.44516243  0.05148631  0.08397852    -0.05200
N49         N  0.43317399  0.07837808  0.11789242    -0.59800
N50         N  0.41126371  0.05156962  0.05421870    -0.04800
N51         N  0.37611606  0.07894481  0.06749522    -0.57700
N52         N  0.44331505  0.94549042  0.08557905    -0.04500
N53         N  0.43017502  0.91963185  0.12008080    -0.60200
C54         C  0.38663823  0.90361264  0.10949587     0.96600
C55         C  0.39027510  0.09598414  0.10728058     0.96400
N56         N  0.59202858  0.04840924  0.04906463    -0.05700
N57         N  0.63072534  0.07132387  0.05960490    -0.58300
N58         N  0.55774341  0.94476054  0.08319421    -0.03900
N59         N  0.57238435  0.92214775  0.11872238    -0.59500
N60         N  0.59028716  0.94322911  0.05166355    -0.05800
N61         N  0.62748170  0.91920370  0.06567118    -0.58500
N62         N  0.56127322  0.04960187  0.08224298    -0.03500
N63         N  0.57940553  0.07319498  0.11615571    -0.59600
Mn64       Mn  0.50158735  0.99798892  0.08388675     1.18400
C65         C  0.62258255  0.08719811  0.10129683     0.98700
C66         C  0.61562201  0.90562263  0.10759683     0.99400
N67         N  0.40451336  0.04754774  0.44681351    -0.05800
N68         N  0.36608609  0.07041903  0.43518617    -0.62100
N69         N  0.44206706  0.94285697  0.41739080    -0.04600
N70         N  0.42720431  0.91823447  0.38287843    -0.62800
N71         N  0.40923425  0.94344611  0.44891841    -0.05300
N72         N  0.37188628  0.91953150  0.43613267    -0.62400
N73         N  0.43577339  0.04759451  0.41398614    -0.04200
N74         N  0.41838749  0.07064383  0.37931723    -0.63100
Mn75       Mn  0.40851494  0.99816753  0.00120687     1.10700
C76         C  0.37501927  0.08519784  0.39332070     0.99900
C77         C  0.38347961  0.90385634  0.39507885     1.00000
N78         N  0.59067232  0.95164640  0.44971489    -0.05300
N79         N  0.62999336  0.92934085  0.43921410    -0.60700
N80         N  0.55149805  0.05355639  0.41431572    -0.04600
N81         N  0.56453534  0.07802864  0.37906977    -0.57400
N82         N  0.58384271  0.05664594  0.44552861    -0.05900
N83         N  0.61887213  0.08360616  0.43187714    -0.60200
N84         N  0.55982131  0.94880093  0.41705945    -0.04900
N85         N  0.57873365  0.92472223  0.38347392    -0.57400
Mn86       Mn  0.58857332  0.99502075  0.99663733     1.20200
Mn87       Mn  0.49744174  0.99794322  0.41523478     1.10100
Cl88       Cl  0.49865745  0.99662867  0.99867972    -0.85400
C89         C  0.62231475  0.91223323  0.39814820     0.96900
C90         C  0.60642522  0.09712691  0.39039145     0.96700
N91         N  0.94786426  0.58773598  0.05285087    -0.05600
N92         N  0.92089127  0.62334455  0.06525743    -0.57700
N93         N  0.05637103  0.55543952  0.07983495    -0.05200
N94         N  0.08393587  0.56971713  0.11256423    -0.59800
N95         N  0.05459423  0.58756513  0.04813409    -0.04800
N96         N  0.08097658  0.62387964  0.05911279    -0.57700
N97         N  0.94974708  0.55635030  0.08513482    -0.04500
N98         N  0.92414362  0.57057913  0.11980753    -0.60200
C99         C  0.90574600  0.61221624  0.10686388     0.96600
C100        C  0.09933755  0.61220106  0.09910873     0.96400
N101        N  0.05377089  0.40742071  0.05101241    -0.05700
N102        N  0.07820870  0.36979930  0.06189032    -0.58300
N103        N  0.94922166  0.44198120  0.08742011    -0.03900
N104        N  0.92440797  0.42897937  0.12274232    -0.59500
N105        N  0.94723664  0.40934209  0.05652273    -0.05800
N106        N  0.92079129  0.37410691  0.07034241    -0.58500
N107        N  0.05572510  0.43907251  0.08293324    -0.03500
N108        N  0.08134339  0.42249409  0.11639307    -0.59600
Mn109      Mn  0.00302091  0.49837402  0.08419036     1.18400
C110        C  0.09582492  0.37940996  0.10244910     0.98700
C111        C  0.90629484  0.38670195  0.11172142     0.99400
N112        N  0.04713016  0.58542945  0.43850147    -0.05800
N113        N  0.07224643  0.62123922  0.42341615    -0.62100
N114        N  0.93905935  0.54916244  0.41545876    -0.04600
N115        N  0.91194101  0.56187004  0.38192428    -0.62800
N116        N  0.94017950  0.58259129  0.44568677    -0.05300
N117        N  0.91343699  0.61820155  0.43276914    -0.62400
N118        N  0.04554092  0.55220249  0.40808832    -0.04200
N119        N  0.06957640  0.56504205  0.37215775    -0.63100
Mn120      Mn  0.99881706  0.58701454  0.99569543     1.10700
C121        C  0.08656118  0.60807169  0.38195933     0.99900
C122        C  0.89542668  0.60487449  0.39291067     1.00000
N123        N  0.94591625  0.40283058  0.44804726    -0.05300
N124        N  0.92285802  0.36450643  0.43706235    -0.60700
N125        N  0.04823622  0.43898693  0.41054815    -0.04600
N126        N  0.07094020  0.42562673  0.37436785    -0.57400
N127        N  0.05160231  0.40649468  0.44143040    -0.05900
N128        N  0.07680316  0.37075101  0.42647088    -0.60200
N129        N  0.94266867  0.43428413  0.41603904    -0.04900
N130        N  0.91753584  0.41713913  0.38268669    -0.57400
Mn131      Mn  0.99813370  0.40772854  0.00044640     1.20200
Mn132      Mn  0.99371752  0.49374525  0.41263515     1.10100
Cl133      Cl  0.99865459  0.49716478  0.99861445    -0.85400
C134        C  0.90476764  0.37371536  0.39647453     0.96900
C135        C  0.08886703  0.38313228  0.38443293     0.96700
C136        C  0.26514329  0.25448119  0.20871682     0.46000
H137        H  0.27410579  0.25288253  0.17318719    -0.03000
C138        C  0.25295099  0.25820700  0.29331927     0.46100
H139        H  0.24715070  0.26399501  0.32882634    -0.03000
C140        C  0.29727958  0.29079313  0.23170451    -0.16700
C141        C  0.21279327  0.26758723  0.22060952    -0.16500
C142        C  0.27709785  0.20791822  0.23241594    -0.16800
C143        C  0.29107767  0.29248666  0.27711146    -0.16800
C144        C  0.20857346  0.27183298  0.26672929    -0.16400
C145        C  0.26856672  0.20802378  0.27836890    -0.16700
C146        C  0.74768355  0.25356223  0.20642700     0.46000
H147        H  0.75117102  0.26111856  0.17083119    -0.03000
C148        C  0.73963850  0.24450880  0.29103952     0.46100
H149        H  0.73245748  0.24050483  0.32664174    -0.03000
C150        C  0.70934952  0.28572793  0.22666728    -0.16700
C151        C  0.73417062  0.20197991  0.21949135    -0.16500
C152        C  0.79288689  0.26786664  0.23152664    -0.16800
C153        C  0.70494645  0.28064289  0.27186721    -0.16800
C154        C  0.72748613  0.19926545  0.26557603    -0.16400
C155        C  0.79067748  0.26078170  0.27760844    -0.16700
C156        C  0.26731576  0.74393668  0.21077303     0.46000
H157        H  0.27781637  0.74426544  0.17545892    -0.03000
C158        C  0.24766077  0.74213578  0.29446746     0.46100
H159        H  0.23812796  0.74323984  0.33015774    -0.03000
C160        C  0.29976128  0.71096255  0.23767364    -0.16700
C161        C  0.27167802  0.79345067  0.23277524    -0.16500
C162        C  0.21704741  0.72460899  0.21941545    -0.16800
C163        C  0.28927122  0.70992292  0.28240068    -0.16800
C164        C  0.26433148  0.79125087  0.27890557    -0.16400
C165        C  0.20657493  0.72365238  0.26482892    -0.16700
C166        C  0.74332813  0.75779780  0.20789679     0.46000
H167        H  0.74344572  0.76566853  0.17290851    -0.03000
C168        C  0.74238547  0.74421474  0.29198143     0.46100
H169        H  0.74151880  0.73477181  0.32731870    -0.03000
C170        C  0.70132247  0.72708192  0.22253307    -0.16700
C171        C  0.78998978  0.73333596  0.22354921    -0.16500
C172        C  0.73421536  0.80314707  0.23410652    -0.16800
C173        C  0.70245375  0.71812456  0.26775377    -0.16800
C174        C  0.78796769  0.72560512  0.26938088    -0.16400
C175        C  0.73594410  0.79753823  0.28035961    -0.16700
C176        C  0.12910927  0.64398954  0.12682574    -0.04800
C177        C  0.17839418  0.64125408  0.12374060    -0.01900
C178        C  0.20726902  0.67119417  0.14941754     0.03100
C179        C  0.18726141  0.70133650  0.18287243    -0.04800
C180        C  0.13738872  0.70666746  0.18259336    -0.01900
C181        C  0.10871495  0.67825698  0.15491109     0.03100
C182        C  0.19965227  0.60668545  0.09417555     0.37700
C183        C  0.11550466  0.74407639  0.20793261     0.37700
C184        C  0.05800261  0.68467184  0.15488866     0.36200
C185        C  0.25690292  0.67043433  0.13849946     0.36200
N186        N  0.01755926  0.69016367  0.15446280    -0.38700
N187        N  0.29532468  0.66895423  0.12534540    -0.38700
N188        N  0.09749955  0.77431448  0.22728626    -0.38100
N189        N  0.21664645  0.57895575  0.07094998    -0.38100
C190        C  0.16786289  0.69474708  0.28739758    -0.04800
C191        C  0.16711834  0.64517543  0.28417351    -0.01900
C192        C  0.14328094  0.61768238  0.31655097     0.03100
C193        C  0.11344409  0.63844190  0.34902784    -0.04800
C194        C  0.10947152  0.68794616  0.34901322    -0.01900
C195        C  0.13787271  0.71564412  0.31989974     0.03100
C196        C  0.19014678  0.62087188  0.24785765     0.37700
C197        C  0.07704892  0.71090233  0.37958738     0.37700
C198        C  0.13674475  0.76600986  0.32424900     0.36200
C199        C  0.15438432  0.56824305  0.31940487     0.36200
N200        N  0.13519533  0.80619059  0.32813351    -0.38700
N201        N  0.16477309  0.52924031  0.32237925    -0.38700
N202        N  0.05112773  0.72941210  0.40384810    -0.38100
N203        N  0.20570454  0.59871033  0.21901431    -0.38100
C204        C  0.11458900  0.35264521  0.35160097    -0.04800
C205        C  0.13332499  0.37251670  0.31215252    -0.01900
C206        C  0.16486967  0.34694157  0.28533481     0.03100
C207        C  0.17184837  0.29865979  0.29235427    -0.04800
C208        C  0.14756424  0.27686664  0.32790557    -0.01900
C209        C  0.12065414  0.30381645  0.35848950     0.03100
C210        C  0.11941802  0.41889776  0.29725292     0.37700
C211        C  0.14858976  0.22627282  0.33156161     0.37700
C212        C  0.09797929  0.28037686  0.39567583     0.36200
C213        C  0.18961552  0.37227280  0.25104697     0.36200
N214        N  0.08003715  0.26124337  0.42521246    -0.38700
N215        N  0.20572368  0.39753295  0.22523609    -0.38700
N216        N  0.14900163  0.18589251  0.33393115    -0.38100
N217        N  0.10768627  0.45505645  0.28397562    -0.38100
C218        C  0.12067324  0.34315270  0.13035765    -0.04800
C219        C  0.15500293  0.31302855  0.11123174    -0.01900
C220        C  0.18160557  0.28194452  0.13859265     0.03100
C221        C  0.17417001  0.28112193  0.18586624    -0.04800
C222        C  0.12898186  0.29787152  0.19924116    -0.01900
C223        C  0.10577060  0.33309897  0.17426715     0.03100
C224        C  0.16604867  0.31665296  0.06401812     0.37700
C225        C  0.10079298  0.27077106  0.23014908     0.37700
C226        C  0.06424173  0.35591977  0.19256579     0.36200
C227        C  0.21513488  0.25155473  0.11634461     0.36200
N228        N  0.03114218  0.37440283  0.20702581    -0.38700
N229        N  0.24137376  0.22847953  0.09630310    -0.38700
N230        N  0.07675771  0.24906016  0.25355284    -0.38100
N231        N  0.17492914  0.31948670  0.02641935    -0.38100
C232        C  0.82738136  0.29784492  0.20521211    -0.04800
C233        C  0.82917981  0.34706166  0.21041301    -0.01900
C234        C  0.85322021  0.37564798  0.17925164     0.03100
C235        C  0.87895508  0.35570401  0.14343702    -0.04800
C236        C  0.87999067  0.30610822  0.13983793    -0.01900
C237        C  0.85354088  0.27775137  0.16974439     0.03100
C238        C  0.80995431  0.36981008  0.24923593     0.37700
C239        C  0.90989556  0.28354655  0.10682598     0.37700
C240        C  0.85594476  0.22720961  0.16615673     0.36200
C241        C  0.85053967  0.42618377  0.18431357     0.36200
N242        N  0.85812630  0.18688130  0.16379070    -0.38700
N243        N  0.84824054  0.46632223  0.18879746    -0.38700
N244        N  0.93403564  0.26525802  0.08084306    -0.38100
N245        N  0.79918394  0.39265774  0.27931822    -0.38100
C246        C  0.82924273  0.27501034  0.31186532    -0.04800
C247        C  0.82327626  0.27381374  0.35939155    -0.01900
C248        C  0.84907045  0.30502376  0.38706821     0.03100
C249        C  0.88121854  0.33719857  0.36810251    -0.04800
C250        C  0.89468835  0.32989750  0.32322380    -0.01900
C251        C  0.87265159  0.29461355  0.29770190     0.03100
C252        C  0.79210050  0.24135711  0.38173227     0.37700
C253        C  0.93328478  0.35614372  0.30383200     0.37700
C254        C  0.90145868  0.26949492  0.26569186     0.36200
C255        C  0.83910752  0.30671429  0.43460919     0.36200
N256        N  0.92613930  0.24902823  0.24172398    -0.38700
N257        N  0.83105897  0.30804349  0.47244878    -0.38700
N258        N  0.96384617  0.37741339  0.28822145    -0.38100
N259        N  0.76757339  0.21692427  0.40203060    -0.35700
C260        C  0.81962022  0.69466760  0.29765578    -0.04800
C261        C  0.84405424  0.71437281  0.33395592    -0.01900
C262        C  0.86828891  0.68572317  0.36508829     0.03100
C263        C  0.86808126  0.63612021  0.36106192    -0.04800
C264        C  0.84435669  0.61661001  0.32386042    -0.01900
C265        C  0.82166674  0.64555449  0.29208603     0.03100
C266        C  0.84789251  0.76488072  0.33675275     0.37700
C267        C  0.84276476  0.56628906  0.31753923     0.37700
C268        C  0.80515200  0.62427549  0.25146344     0.36200
C269        C  0.89499296  0.70820447  0.40000486     0.36200
N270        N  0.79624062  0.60580743  0.21834017    -0.38700
N271        N  0.91641690  0.72657586  0.42756623    -0.38700
N272        N  0.84139528  0.52626924  0.31201772    -0.38100
N273        N  0.85127967  0.80513832  0.33856053    -0.38100
C274        C  0.82732679  0.71259481  0.19040457    -0.04800
C275        C  0.87089912  0.69304562  0.20460322    -0.01900
C276        C  0.89351155  0.65683306  0.17977306     0.03100
C277        C  0.87817989  0.64544593  0.13633018    -0.04800
C278        C  0.84107680  0.67225194  0.11833422    -0.01900
C279        C  0.81862502  0.70778645  0.14380939     0.03100
C280        C  0.89799088  0.71646814  0.23852165     0.37700
C281        C  0.82637597  0.66433793  0.07269364     0.37700
C282        C  0.80036875  0.74657829  0.11833427     0.36200
C283        C  0.93324455  0.63226062  0.19902999     0.36200
N284        N  0.78808146  0.77736889  0.09622724    -0.38700
N285        N  0.96456684  0.61238081  0.21483678    -0.38700
N286        N  0.81472424  0.65811426  0.03631257    -0.38100
N287        N  0.92153777  0.73514331  0.26427368    -0.38100
C288        C  0.63826857  0.12194430  0.35784387    -0.04800
C289        C  0.61862274  0.14507481  0.32075198    -0.01900
C290        C  0.64791551  0.16361879  0.28694610     0.03100
C291        C  0.69753661  0.16508699  0.29184575    -0.04800
C292        C  0.71734179  0.14213431  0.32902192    -0.01900
C293        C  0.68823563  0.11954969  0.36102046     0.03100
C294        C  0.56778695  0.15120937  0.31730379     0.37700
C295        C  0.76828376  0.13973459  0.33293294     0.37700
C296        C  0.71033396  0.09300740  0.39635959     0.36200
C297        C  0.62562430  0.17575880  0.24566603     0.36200
N298        N  0.72815068  0.07165149  0.42437032    -0.38700
N299        N  0.60355676  0.18040266  0.21382227    -0.38700
N300        N  0.80892236  0.13765059  0.33582670    -0.38100
N301        N  0.52743485  0.15651932  0.31425526    -0.38100
C302        C  0.72132484  0.16326706  0.18507761    -0.04800
C303        C  0.72150883  0.17018790  0.13783153    -0.01900
C304        C  0.69033678  0.14434277  0.11023838     0.03100
C305        C  0.65993242  0.11044239  0.12901260    -0.04800
C306        C  0.67005137  0.09512360  0.17264125    -0.01900
C307        C  0.70425683  0.11877218  0.19852049     0.03100
C308        C  0.75431941  0.20122887  0.11573231     0.37700
C309        C  0.64802874  0.05311486  0.18977916     0.37700
C310        C  0.72947839  0.09223076  0.23178354     0.36200
C311        C  0.68726587  0.15547361  0.06311622     0.36200
N312        N  0.74989162  0.06930040  0.25694032    -0.38700
N313        N  0.68495337  0.16450533  0.02560888    -0.38700
N314        N  0.63031978  0.01950401  0.20316926    -0.38100
N315        N  0.77942328  0.22548541  0.09588254    -0.38100
C316        C  0.36020054  0.12420958  0.13916263    -0.04800
C317        C  0.38170302  0.14685395  0.17561352    -0.01900
C318        C  0.35414885  0.16869785  0.20898404     0.03100
C319        C  0.30471208  0.17292861  0.20489604    -0.04800
C320        C  0.28294225  0.15098251  0.16825355    -0.01900
C321        C  0.31014638  0.12617413  0.13603871     0.03100
C322        C  0.43286637  0.14918715  0.17896740     0.37700
C323        C  0.23183109  0.15156372  0.16542891     0.37700
C324        C  0.28589268  0.10250444  0.10025265     0.36200
C325        C  0.37824793  0.18302149  0.24860910     0.36200
N326        N  0.26609721  0.08374606  0.07184583    -0.38700
N327        N  0.40270836  0.18954171  0.27846423    -0.38700
N328        N  0.19106045  0.15175576  0.16363142    -0.38100
N329        N  0.47347743  0.15133294  0.18212102    -0.38100
C330        C  0.27972503  0.16763979  0.31146335    -0.04800
C331        C  0.29586809  0.12336295  0.29637130    -0.01900
C332        C  0.32894725  0.09734898  0.32165752     0.03100
C333        C  0.33915422  0.11071011  0.36581481    -0.04800
C334        C  0.31015356  0.14532743  0.38559128    -0.01900
C335        C  0.27938749  0.17272645  0.35900808     0.03100
C336        C  0.26933567  0.09890429  0.26273320     0.37700
C337        C  0.31537085  0.15655418  0.43256963     0.37700
C338        C  0.24797874  0.20424435  0.38261741     0.36200
C339        C  0.34917718  0.05481188  0.30341219     0.36200
N340        N  0.22423971  0.22882114  0.40379402    -0.38700
N341        N  0.36513213  0.02077684  0.28878454    -0.38700
N342        N  0.31974435  0.16583558  0.46983773    -0.38100
N343        N  0.24759658  0.07755820  0.23744121    -0.38100
C344        C  0.64745304  0.88167263  0.14067891    -0.04800
C345        C  0.69746355  0.88412147  0.13819917    -0.01900
C346        C  0.72584681  0.86136645  0.17064987     0.03100
C347        C  0.70515758  0.83834860  0.20776838    -0.04800
C348        C  0.65533627  0.83918089  0.21139407    -0.01900
C349        C  0.62700739  0.85804093  0.17734378     0.03100
C350        C  0.72020510  0.90914180  0.10204747     0.37700
C351        C  0.63116263  0.82267201  0.25049320     0.37700
C352        C  0.57621050  0.85075568  0.17965996     0.36200
C353        C  0.77680487  0.86153520  0.16595832     0.36200
N354        N  0.53590548  0.84467094  0.18177929    -0.38700
N355        N  0.81748139  0.86159423  0.16239985    -0.38700
N356        N  0.60663422  0.81362621  0.28001336    -0.38100
N357        N  0.73861782  0.92902439  0.07323320    -0.38100
C358        C  0.72238804  0.83535776  0.31548604    -0.04800
C359        C  0.70763298  0.88093042  0.30277032    -0.01900
C360        C  0.67301206  0.90518542  0.32828330     0.03100
C361        C  0.66030710  0.88882555  0.37100725    -0.04800
C362        C  0.68914012  0.85387801  0.39000084    -0.01900
C363        C  0.71994064  0.82686506  0.36250667     0.03100
C364        C  0.73562375  0.90729711  0.27115929     0.37700
C365        C  0.68467678  0.84307758  0.43717691     0.37700
C366        C  0.74856739  0.79204562  0.38454854     0.36200
C367        C  0.65444799  0.94949305  0.31275299     0.36200
N368        N  0.76975439  0.76463013  0.40460741    -0.38700
N369        N  0.63983924  0.98518096  0.30093415    -0.38700
N370        N  0.68142044  0.83456270  0.47476896    -0.38100
N371        N  0.75837118  0.92968459  0.24720384    -0.38100
C372        C  0.35097479  0.87665556  0.36603990    -0.04800
C373        C  0.30341891  0.89073678  0.35861008    -0.01900
C374        C  0.27354282  0.86303495  0.33101608     0.03100
C375        C  0.29096859  0.82070253  0.31285339    -0.04800
C376        C  0.33111488  0.80211654  0.33440549    -0.01900
C377        C  0.36567947  0.83294025  0.34963889     0.03100
C378        C  0.28632261  0.93454229  0.37685638     0.37700
C379        C  0.32190407  0.76687970  0.36780006     0.37700
C380        C  0.41201603  0.81459972  0.36036454     0.36200
C381        C  0.22639246  0.87878987  0.32033525     0.36200
N382        N  0.44888596  0.79988297  0.36912218    -0.38700
N383        N  0.18921567  0.89251941  0.31137742    -0.38700
N384        N  0.31527391  0.74153668  0.39722326    -0.38100
N385        N  0.27288463  0.96963923  0.39143146    -0.38100
C386        C  0.35306541  0.87971921  0.14165175    -0.04800
C387        C  0.31347744  0.85435670  0.12615295    -0.01900
C388        C  0.28155116  0.83321181  0.15672859     0.03100
C389        C  0.28975905  0.83438011  0.20337094    -0.04800
C390        C  0.32105344  0.86986333  0.21769692    -0.01900
C391        C  0.35626151  0.88718846  0.18828079     0.03100
C392        C  0.30592021  0.84825823  0.07877707     0.37700
C393        C  0.30319683  0.90566948  0.24704859     0.37700
C394        C  0.39333785  0.91599422  0.20679691     0.36200
C395        C  0.23775883  0.81389245  0.14024175     0.36200
N396        N  0.42287128  0.93868665  0.22196824    -0.38700
N397        N  0.20273718  0.79899162  0.12681590    -0.38700
N398        N  0.29049804  0.93822752  0.26671806    -0.38100
N399        N  0.29971044  0.84328353  0.04101010    -0.38100
C400        C  0.36508399  0.61334134  0.36573120    -0.04800
C401        C  0.31593091  0.61797883  0.37116507    -0.01900
C402        C  0.29156784  0.65267988  0.34752875     0.03100
C403        C  0.31552670  0.68043746  0.31534299    -0.04800
C404        C  0.36534089  0.67725556  0.31269585    -0.01900
C405        C  0.38916812  0.64121004  0.33441768     0.03100
C406        C  0.29011392  0.58889112  0.40270026     0.37700
C407        C  0.39350775  0.71446958  0.29365623     0.37700
C408        C  0.43897726  0.63343428  0.32475165     0.36200
C409        C  0.24492266  0.66426168  0.36364614     0.36200
N410        N  0.47854787  0.62731262  0.31684881    -0.38700
N411        N  0.20987376  0.67343545  0.38157056    -0.38700
N412        N  0.41841651  0.74345622  0.28071658    -0.38100
N413        N  0.26903955  0.56598159  0.42756668    -0.38100
C414        C  0.39759655  0.63034713  0.15825421    -0.04800
C415        C  0.40236254  0.67931058  0.16108041    -0.01900
C416        C  0.37198325  0.70494206  0.18897160     0.03100
C417        C  0.33722205  0.68217644  0.21500461    -0.04800
C418        C  0.33815888  0.63250114  0.21731763    -0.01900
C419        C  0.36918406  0.60693196  0.18969554     0.03100
C420        C  0.43778203  0.70413739  0.13505349     0.37700
C421        C  0.30813580  0.60636861  0.24739908     0.37700
C422        C  0.37271456  0.55645821  0.19443348     0.36200
C423        C  0.37952058  0.75459630  0.19246973     0.36200
N424        N  0.37579814  0.51636135  0.19876268    -0.38700
N425        N  0.39048425  0.79324828  0.19531937    -0.38700
N426        N  0.28684211  0.58289915  0.27159705    -0.38100
N427        N  0.46604680  0.72422797  0.11474189    -0.38100
C428        C  0.67276992  0.68382368  0.29338431    -0.04800
C429        C  0.65082082  0.69816918  0.33370826    -0.01900
C430        C  0.62833705  0.66604192  0.36144347     0.03100
C431        C  0.62057536  0.62036303  0.34643751    -0.04800
C432        C  0.64108615  0.60499938  0.30631348    -0.01900
C433        C  0.66849298  0.63610112  0.28040105     0.03100
C434        C  0.64339356  0.74626558  0.34551598     0.37700
C435        C  0.63340746  0.55730989  0.29169167     0.37700
C436        C  0.68864078  0.61882185  0.23917701     0.36200
C437        C  0.61345673  0.68059712  0.40606040     0.36200
N438        N  0.70146906  0.60366384  0.20546020    -0.38700
N439        N  0.60163765  0.69247250  0.44129597    -0.38700
N440        N  0.62696746  0.51919687  0.28044925    -0.38100
N441        N  0.63047411  0.78150550  0.35987385    -0.38100
C442        C  0.62567588  0.64208288  0.13494091    -0.04800
C443        C  0.60202452  0.65496478  0.17467448    -0.01900
C444        C  0.62094182  0.69047920  0.20164896     0.03100
C445        C  0.66470711  0.71073329  0.18945126    -0.04800
C446        C  0.67699014  0.70841030  0.14392144    -0.01900
C447        C  0.66283486  0.66990603  0.11890506     0.03100
C448        C  0.55856581  0.63177438  0.18771492     0.37700
C449        C  0.68250573  0.75149152  0.11926580     0.37700
C450        C  0.68113114  0.66396735  0.07388105     0.36200
C451        C  0.59256001  0.70880941  0.23793186     0.36200
N452        N  0.69542328  0.65947276  0.03791551    -0.38700
N453        N  0.56772725  0.72193867  0.26607043    -0.38700
N454        N  0.68500292  0.78518432  0.09810267    -0.38100
N455        N  0.52387036  0.61341350  0.19808681    -0.38100
C456        C  0.60952468  0.34927968  0.36301544    -0.04800
C457        C  0.65587073  0.33967135  0.37499750    -0.01900
C458        C  0.68702733  0.32310674  0.34280463     0.03100
C459        C  0.67028603  0.30467884  0.30208404    -0.04800
C460        C  0.62090048  0.30730067  0.29349859    -0.01900
C461        C  0.59096326  0.33127828  0.32362243     0.03100
C462        C  0.67257822  0.35044649  0.41967270     0.37700
C463        C  0.59992947  0.28857889  0.25368915     0.37700
C464        C  0.54119747  0.33783639  0.31478195     0.36200
C465        C  0.73479575  0.33831598  0.34843817     0.36200
N466        N  0.50126594  0.34352464  0.30928551    -0.38700
N467        N  0.76941494  0.35718412  0.35714316    -0.38700
N468        N  0.57976868  0.27596083  0.22261054    -0.38100
N469        N  0.68585147  0.35886082  0.45513542    -0.38100
C470        C  0.68400986  0.32003899  0.19749215    -0.04800
C471        C  0.68269467  0.36910156  0.20604486    -0.01900
C472        C  0.66471857  0.40003556  0.17368394     0.03100
C473        C  0.64796159  0.38233114  0.13339035    -0.04800
C474        C  0.65251761  0.33491004  0.12332151    -0.01900
C475        C  0.66619901  0.30379210  0.15639375     0.03100
C476        C  0.69511899  0.38911760  0.24843882     0.37700
C477        C  0.64139996  0.31763830  0.07888048     0.37700
C478        C  0.65172185  0.25627619  0.14969358     0.36200
C479        C  0.66335851  0.45011772  0.18154729     0.36200
N480        N  0.63421103  0.22156797  0.13959707    -0.38700
N481        N  0.66287519  0.49012493  0.18719887    -0.38700
N482        N  0.63256360  0.30391636  0.04365503    -0.38100
N483        N  0.70183393  0.40886327  0.28139732    -0.38100
C484        C  0.31644025  0.32293419  0.31053795    -0.04800
C485        C  0.33373995  0.30160037  0.34984375    -0.01900
C486        C  0.34889751  0.32816141  0.38590728     0.03100
C487        C  0.35804620  0.37561497  0.38006091    -0.04800
C488        C  0.34491060  0.39794630  0.34024024    -0.01900
C489        C  0.32197343  0.37231314  0.30630975     0.03100
C490        C  0.34959739  0.25398123  0.35047824     0.37700
C491        C  0.35721869  0.44667394  0.33335270     0.37700
C492        C  0.30812225  0.39753438  0.26681803     0.36200
C493        C  0.35829169  0.30551062  0.42846196     0.36200
N494        N  0.30008836  0.42044823  0.23601914    -0.38700
N495        N  0.36573387  0.28730986  0.46213105    -0.38700
N496        N  0.36753522  0.48534146  0.32770964    -0.38100
N497        N  0.36888777  0.21886688  0.35571959    -0.38100
C498        C  0.33136556  0.31912612  0.20465489    -0.04800
C499        C  0.31541551  0.34021661  0.16475497    -0.01900
C500        C  0.34684024  0.36201601  0.13594101     0.03100
C501        C  0.39151018  0.37395584  0.15131191    -0.04800
C502        C  0.40852387  0.35529126  0.19114927    -0.01900
C503        C  0.37963782  0.32505749  0.21638695     0.03100
C504        C  0.26680964  0.35061136  0.15610948     0.37700
C505        C  0.45548300  0.36776314  0.20581815     0.37700
C506        C  0.40075486  0.30160097  0.25378046     0.36200
C507        C  0.33216649  0.37374714  0.09075856     0.36200
N508        N  0.42069581  0.28498901  0.28327445    -0.38700
N509        N  0.32049797  0.38290985  0.05492629    -0.38700
N510        N  0.49292794  0.37867134  0.21669312    -0.38100
N511        N  0.23131242  0.36621276  0.14469188    -0.38100
N512        N  0.59855248  0.44591567  0.53637214    -0.05600
N513        N  0.63382904  0.44071676  0.56432719    -0.57700
N514        N  0.55604287  0.41810238  0.95634495    -0.05200
N515        N  0.56029502  0.38704238  0.92423905    -0.59800
N516        N  0.58812511  0.45088526  0.95257993    -0.04800
N517        N  0.61476200  0.44318734  0.91732433    -0.57700
N518        N  0.56528264  0.41510830  0.54410989    -0.04500
N519        N  0.57686539  0.38828881  0.57776108    -0.60200
C520        C  0.61946533  0.40473480  0.58993035     0.96600
C521        C  0.59679239  0.40343654  0.90004676     0.96400
N522        N  0.41340651  0.44563232  0.96947012    -0.05700
N523        N  0.38076669  0.43778731  0.93940886    -0.58300
N524        N  0.45847605  0.41869158  0.56143791    -0.03900
N525        N  0.45533603  0.39056369  0.59591482    -0.59500
N526        N  0.42759597  0.45271064  0.56445720    -0.05800
N527        N  0.40322942  0.44925612  0.60154009    -0.58500
N528        N  0.44741343  0.41457195  0.96656859    -0.03500
N529        N  0.43879375  0.38462392  0.93439396    -0.59600
Mn530      Mn  0.50201795  0.41067879  0.50322121     1.18400
C531        C  0.39714606  0.39964160  0.91783794     0.98700
C532        C  0.42086252  0.41033330  0.62068596     0.99400
N533        N  0.58743515  0.55821729  0.95010768    -0.05800
N534        N  0.61699739  0.56600210  0.91707391    -0.62100
N535        N  0.56764550  0.58631539  0.53026532    -0.04600
N536        N  0.57676956  0.61710155  0.56120549    -0.62800
N537        N  0.60034814  0.55373144  0.52858754    -0.05300
N538        N  0.63297619  0.56163297  0.55888450    -0.62400
N539        N  0.55268764  0.58850038  0.94993063    -0.04200
N540        N  0.55740627  0.61748972  0.91633787    -0.63100
Mn541      Mn  0.59405211  0.50703882  0.00186936     1.10700
C542        C  0.59766805  0.60297806  0.89621223     0.99900
C543        C  0.61724453  0.60131884  0.57860340     1.00000
N544        N  0.42774375  0.55836287  0.55610964    -0.05300
N545        N  0.40547376  0.56552619  0.59393870    -0.60700
N546        N  0.44439262  0.58437345  0.95826442    -0.04600
N547        N  0.43818548  0.60725675  0.92090413    -0.57400
N548        N  0.41255626  0.55164100  0.96302269    -0.05900
N549        N  0.38425625  0.55105583  0.92855334    -0.60200
N550        N  0.46077021  0.58960141  0.54981971    -0.04900
N551        N  0.46174877  0.61893519  0.58376623    -0.57400
Mn552      Mn  0.41637566  0.50152384  0.51054903     1.20200
Mn553      Mn  0.50184420  0.59157168  0.00423773     1.10100
Cl554      Cl  0.50411665  0.49822502  0.49648552    -0.85400
C555        C  0.42711268  0.60310204  0.61128980     0.96900
C556        C  0.40077186  0.58589722  0.90245203     0.96700
N557        N  0.41127391  0.94572215  0.55651618    -0.05600
N558        N  0.37751053  0.91687191  0.56936822    -0.57700
N559        N  0.43906740  0.05408611  0.58389910    -0.05200
N560        N  0.42682993  0.08227655  0.61656059    -0.59800
N561        N  0.40532612  0.05201184  0.55410505    -0.04800
N562        N  0.36946944  0.07926877  0.56630011    -0.57700
N563        N  0.44419762  0.94807292  0.58713055    -0.04500
N564        N  0.43322482  0.92047034  0.62100684    -0.60200
C565        C  0.39157048  0.90070394  0.60958024     0.96600
C566        C  0.38376753  0.09850397  0.60527444     0.96400
N567        N  0.58499895  0.06044460  0.55249693    -0.05700
N568        N  0.62208093  0.08503997  0.56441491    -0.58300
N569        N  0.55710320  0.95557296  0.58761616    -0.03900
N570        N  0.57070736  0.93285862  0.62335436    -0.59500
N571        N  0.59077505  0.95538609  0.55721172    -0.05800
N572        N  0.62790090  0.93184419  0.57210007    -0.58500
N573        N  0.55320208  0.06003613  0.58475720    -0.03500
N574        N  0.56883226  0.08439753  0.61923618    -0.59600
Mn575      Mn  0.49804088  0.00452239  0.58587148     1.18400
C576        C  0.61174794  0.10040481  0.60586836     0.98700
C577        C  0.61462083  0.91756011  0.61350879     0.99400
N578        N  0.40786445  0.05040919  0.94775988    -0.05800
N579        N  0.37075333  0.07578934  0.93704767    -0.62100
N580        N  0.43706437  0.94471875  0.91472998    -0.04600
N581        N  0.42141991  0.92021261  0.88053214    -0.62800
N582        N  0.40480597  0.94588329  0.94670240    -0.05300
N583        N  0.36675574  0.92249457  0.93442057    -0.62400
N584        N  0.43887337  0.04984968  0.91477581    -0.04200
N585        N  0.42276253  0.07497932  0.88098687    -0.63100
Mn586      Mn  0.40757828  0.99719215  0.50180758     1.10700
C587        C  0.38038598  0.09144716  0.89559484     0.99900
C588        C  0.37758191  0.90657729  0.89311556     1.00000
N589        N  0.58552927  0.94166338  0.94422976    -0.05300
N590        N  0.62170846  0.91524632  0.93254709    -0.60700
N591        N  0.55420200  0.04772387  0.91233827    -0.04600
N592        N  0.56654986  0.07528044  0.87899303    -0.57400
N593        N  0.58752323  0.04741571  0.94270305    -0.05900
N594        N  0.62266920  0.07504870  0.93055219    -0.60200
N595        N  0.55345988  0.94213609  0.91255673    -0.04900
N596        N  0.56816383  0.91624159  0.87845362    -0.57400
Mn597      Mn  0.58727448  0.00595102  0.50104203     1.20200
Mn598      Mn  0.49608626  0.99597523  0.91310928     1.10100
Cl599      Cl  0.49758572  0.00130680  0.50084112    -0.85400
C600        C  0.61050630  0.89913151  0.89183639     0.96900
C601        C  0.60912741  0.09265539  0.89079425     0.96700
N602        N  0.94798398  0.58196553  0.55425320    -0.05600
N603        N  0.91900497  0.61577342  0.56691847    -0.57700
N604        N  0.05876271  0.55355303  0.57832100    -0.05200
N605        N  0.08826757  0.56750926  0.60964703    -0.59800
N606        N  0.05485899  0.58613913  0.54730591    -0.04800
N607        N  0.08156749  0.62256271  0.55731947    -0.57700
N608        N  0.95196938  0.55050024  0.58621751    -0.04500
N609        N  0.92601106  0.56291765  0.62126944    -0.60200
C610        C  0.90521049  0.60343929  0.60851058     0.96600
C611        C  0.10250853  0.61040699  0.59604699     0.96400
N612        N  0.05957207  0.40602430  0.54791290    -0.05700
N613        N  0.08515125  0.36906508  0.55878109    -0.58300
N614        N  0.95518654  0.43655801  0.58618537    -0.03900
N615        N  0.93019229  0.42333649  0.62118272    -0.59500
N616        N  0.95308103  0.40425453  0.55499122    -0.05800
N617        N  0.92637402  0.36891721  0.56826756    -0.58500
N618        N  0.06136419  0.43790294  0.57964029    -0.03500
N619        N  0.08782193  0.42234633  0.61282357    -0.59600
Mn620      Mn  0.00708130  0.49478435  0.58297925     1.18400
C621        C  0.10309977  0.37962164  0.59907164     0.98700
C622        C  0.91173781  0.38137865  0.60963750     0.99400
N623        N  0.05013540  0.58497718  0.93829363    -0.05800
N624        N  0.07632502  0.61948165  0.92201786    -0.62100
N625        N  0.94140405  0.55167047  0.91387846    -0.04600
N626        N  0.91452827  0.56317215  0.87980563    -0.62800
N627        N  0.94260583  0.58616495  0.94298524    -0.05300
N628        N  0.91613526  0.62149628  0.92860745    -0.62400
N629        N  0.04790810  0.55086399  0.90887955    -0.04200
N630        N  0.07226368  0.56177432  0.87262929    -0.63100
Mn631      Mn  0.99751350  0.58428629  0.49659954     1.10700
C632        C  0.09040983  0.60457461  0.88089428     0.99900
C633        C  0.89813313  0.60661949  0.88910504     1.00000
N634        N  0.94296525  0.40669329  0.94976198    -0.05300
N635        N  0.91991246  0.36856527  0.93857031    -0.60700
N636        N  0.04759819  0.43857299  0.91352413    -0.04600
N637        N  0.07108505  0.42490442  0.87792235    -0.57400
N638        N  0.04854833  0.40558848  0.94407543    -0.05900
N639        N  0.07240766  0.36877484  0.92905931    -0.60200
N640        N  0.94166639  0.43754616  0.91715026    -0.04900
N641        N  0.91775698  0.42025163  0.88316785    -0.57400
Mn642      Mn  0.00252381  0.40521998  0.49815713     1.20200
Mn643      Mn  0.99449883  0.49477213  0.91371818     1.10100
Cl644      Cl  0.00020936  0.49462731  0.49763026    -0.85400
C645        C  0.90388533  0.37733919  0.89722431     0.96900
C646        C  0.08642154  0.38131622  0.88745146     0.96700
C647        C  0.27140465  0.26218803  0.71135598     0.46000
H648        H  0.28123258  0.26165596  0.67603249    -0.03000
C649        C  0.25798713  0.26421101  0.79577973     0.46100
H650        H  0.25206471  0.26981964  0.83126314    -0.03000
C651        C  0.30339732  0.29776917  0.73540291    -0.16700
C652        C  0.21899286  0.27475881  0.72264572    -0.16500
C653        C  0.28194564  0.21494468  0.73397215    -0.16800
C654        C  0.29685518  0.29798262  0.78056422    -0.16800
C655        C  0.21375006  0.27859782  0.76887033    -0.16400
C656        C  0.27351639  0.21418256  0.78005642    -0.16700
C657        C  0.74521403  0.26034143  0.70846174     0.46000
H658        H  0.74859854  0.26518473  0.67238569    -0.03000
C659        C  0.73774984  0.25741203  0.79349940     0.46100
H660        H  0.73100642  0.25646562  0.82950665    -0.03000
C661        C  0.70970559  0.29670845  0.72694570    -0.16700
C662        C  0.72800119  0.21103171  0.72466361    -0.16500
C663        C  0.79194899  0.27216951  0.73199261    -0.16800
C664        C  0.70624878  0.29573134  0.77262607    -0.16800
C665        C  0.72184977  0.21152770  0.77086651    -0.16400
C666        C  0.78982483  0.26794357  0.77834269    -0.16700
C667        C  0.27637410  0.73507001  0.70788146     0.46000
H668        H  0.28668971  0.73540964  0.67247748    -0.03000
C669        C  0.25714619  0.73150991  0.79169231     0.46100
H670        H  0.24833198  0.73097020  0.82760445    -0.03000
C671        C  0.31009720  0.70305575  0.73415628    -0.16700
C672        C  0.27954219  0.78440266  0.73040929    -0.16500
C673        C  0.22640469  0.71476799  0.71675240    -0.16800
C674        C  0.29954949  0.70057921  0.77871280    -0.16800
C675        C  0.27180250  0.78148217  0.77658344    -0.16400
C676        C  0.21609072  0.71302106  0.76217641    -0.16700
C677        C  0.73629175  0.74695975  0.70133783     0.46000
H678        H  0.73757090  0.75621611  0.66649493    -0.03000
C679        C  0.73666874  0.73382811  0.78545506     0.46100
H680        H  0.73653165  0.72415268  0.82066872    -0.03000
C681        C  0.69635274  0.71304424  0.71585049    -0.16700
C682        C  0.78378959  0.72469654  0.71718137    -0.16500
C683        C  0.72516474  0.79194855  0.72793671    -0.16800
C684        C  0.69752393  0.70654112  0.76162873    -0.16800
C685        C  0.78297108  0.71763629  0.76301159    -0.16400
C686        C  0.72745039  0.78628643  0.77406705    -0.16700
C687        C  0.13431819  0.64165247  0.62244564    -0.04800
C688        C  0.18346580  0.63626315  0.61924532    -0.01900
C689        C  0.21397769  0.66367176  0.64585987     0.03100
C690        C  0.19553620  0.69405232  0.67978038    -0.04800
C691        C  0.14623036  0.70293072  0.67900655    -0.01900
C692        C  0.11607135  0.67734884  0.65025187     0.03100
C693        C  0.20279416  0.60230643  0.58795979     0.37700
C694        C  0.12680700  0.74084642  0.70543065     0.37700
C695        C  0.06632627  0.68874143  0.64824950     0.36200
C696        C  0.26373569  0.66019634  0.63587200     0.36200
N697        N  0.02681250  0.69861612  0.64591234    -0.38700
N698        N  0.30237662  0.65690369  0.62362656    -0.38700
N699        N  0.11122840  0.77149248  0.72602430    -0.38100
N700        N  0.21817340  0.57526685  0.56306023    -0.38100
C701        C  0.17544075  0.68670249  0.78485145    -0.04800
C702        C  0.16900831  0.63774100  0.77935536    -0.01900
C703        C  0.14171290  0.61138756  0.81040446     0.03100
C704        C  0.11759249  0.63330628  0.84653321    -0.04800
C705        C  0.11989492  0.68277210  0.84915597    -0.01900
C706        C  0.14898645  0.70878361  0.81933954     0.03100
C707        C  0.19140900  0.61262266  0.74309335     0.37700
C708        C  0.09367322  0.70755119  0.88353411     0.37700
C709        C  0.15279990  0.75863430  0.82596020     0.36200
C710        C  0.14214332  0.56082040  0.80665379     0.36200
N711        N  0.15460666  0.79827375  0.83294748    -0.38700
N712        N  0.14346211  0.52054539  0.80344447    -0.38700
N713        N  0.07303130  0.72765050  0.91093351    -0.38100
N714        N  0.20678889  0.58994892  0.71452412    -0.38100
C715        C  0.11222253  0.35098531  0.85416418    -0.04800
C716        C  0.12586986  0.37036473  0.81277618    -0.01900
C717        C  0.16188591  0.34936600  0.78750548     0.03100
C718        C  0.17457642  0.30221242  0.79480108    -0.04800
C719        C  0.15228406  0.27850583  0.83062159    -0.01900
C720        C  0.12437709  0.30353565  0.86219951     0.03100
C721        C  0.10136990  0.41036066  0.79385769     0.37700
C722        C  0.15597664  0.22802881  0.83340043     0.37700
C723        C  0.10719062  0.27960184  0.90156996     0.36200
C724        C  0.18636641  0.37945675  0.75686746     0.36200
N725        N  0.09371082  0.26018450  0.93297746    -0.38700
N726        N  0.20171614  0.40938934  0.73555856    -0.38700
N727        N  0.15825881  0.18766143  0.83501807    -0.38100
N728        N  0.08117061  0.44122305  0.77782028    -0.38100
C729        C  0.12782296  0.34440318  0.62793350    -0.04800
C730        C  0.16496235  0.31655562  0.61078424    -0.01900
C731        C  0.19087606  0.28644616  0.63949335     0.03100
C732        C  0.18125307  0.28603985  0.68653228    -0.04800
C733        C  0.13481776  0.30059551  0.69791351    -0.01900
C734        C  0.11050140  0.33332903  0.67087543     0.03100
C735        C  0.17852744  0.32078555  0.56419874     0.37700
C736        C  0.10743060  0.27315318  0.72915954     0.37700
C737        C  0.06537598  0.35196283  0.68557621     0.36200
C738        C  0.22452459  0.25508024  0.61866054     0.36200
N739        N  0.02918919  0.36670268  0.69700489    -0.38700
N740        N  0.25086995  0.23091964  0.59995829    -0.38700
N741        N  0.08426333  0.25094237  0.75290628    -0.38100
N742        N  0.18939667  0.32399109  0.52708280    -0.38100
C743        C  0.82756577  0.29916746  0.70421078    -0.04800
C744        C  0.82930593  0.34856047  0.70584712    -0.01900
C745        C  0.85484446  0.37463281  0.67397995     0.03100
C746        C  0.88162029  0.35214184  0.64043473    -0.04800
C747        C  0.88060785  0.30246109  0.63855939    -0.01900
C748        C  0.85400331  0.27636182  0.67035651     0.03100
C749        C  0.80684493  0.37479626  0.74079184     0.37700
C750        C  0.90675660  0.27772112  0.60418631     0.37700
C751        C  0.85680526  0.22570964  0.67062577     0.36200
C752        C  0.85146397  0.42546708  0.67506889     0.36200
N753        N  0.85953046  0.18533711  0.67135117    -0.38700
N754        N  0.84853375  0.46581897  0.67625343    -0.38700
N755        N  0.92716379  0.25769035  0.57658269    -0.38100
N756        N  0.79317842  0.40200716  0.76611646    -0.38100
C757        C  0.82963033  0.28020466  0.81162470    -0.04800
C758        C  0.82394014  0.27768694  0.85902247    -0.01900
C759        C  0.84962509  0.30816283  0.88719175     0.03100
C760        C  0.88164541  0.34070182  0.86862928    -0.04800
C761        C  0.89536001  0.33440750  0.82369633    -0.01900
C762        C  0.87289572  0.30016909  0.79734081     0.03100
C763        C  0.79394415  0.24365785  0.88061695     0.37700
C764        C  0.93537789  0.35968246  0.80552596     0.37700
C765        C  0.90211619  0.27529482  0.76548797     0.36200
C766        C  0.83937424  0.30896412  0.93470356     0.36200
N767        N  0.92767665  0.25544905  0.74185857    -0.38700
N768        N  0.83111623  0.30959496  0.97251987    -0.38700
N769        N  0.96731989  0.37978414  0.79096882    -0.38100
N770        N  0.77049671  0.21801638  0.90065605    -0.35700
C771        C  0.81733038  0.68968745  0.79148713    -0.04800
C772        C  0.84086482  0.71177510  0.82716532    -0.01900
C773        C  0.86768456  0.68547017  0.85841011     0.03100
C774        C  0.86939060  0.63577160  0.85632795    -0.04800
C775        C  0.84557343  0.61388889  0.82031630    -0.01900
C776        C  0.82206267  0.64064843  0.78734176     0.03100
C777        C  0.83993031  0.76242913  0.82990393     0.37700
C778        C  0.84377005  0.56328569  0.81700185     0.37700
C779        C  0.80651951  0.61730951  0.74738191     0.36200
C780        C  0.89473812  0.71036237  0.89153172     0.36200
N781        N  0.79770422  0.59779817  0.71476223    -0.38700
N782        N  0.91654213  0.73068745  0.91753710    -0.38700
N783        N  0.84188749  0.52298597  0.81411879    -0.38100
N784        N  0.83933843  0.80284172  0.83165671    -0.38100
C785        C  0.82033436  0.70311911  0.68456196    -0.04800
C786        C  0.86709944  0.69204737  0.69772649    -0.01900
C787        C  0.89326312  0.65625466  0.67563315     0.03100
C788        C  0.87504354  0.63426553  0.63727317    -0.04800
C789        C  0.83138928  0.64964817  0.62087705    -0.01900
C790        C  0.80722388  0.68711746  0.64142196     0.03100
C791        C  0.89126536  0.72226731  0.72865093     0.37700
C792        C  0.81142965  0.62769135  0.58169050     0.37700
C793        C  0.78292055  0.71770029  0.61095802     0.36200
C794        C  0.93880892  0.64205986  0.69263985     0.36200
N795        N  0.76649685  0.74229875  0.58464330    -0.38700
N796        N  0.97480084  0.63026036  0.70678411    -0.38700
N797        N  0.79521076  0.60987128  0.55080335    -0.38100
N798        N  0.91190504  0.74672284  0.75215201    -0.38100
C799        C  0.63880997  0.12345947  0.86118742    -0.04800
C800        C  0.61653617  0.15298360  0.83007912    -0.01900
C801        C  0.64330479  0.17840912  0.79857036     0.03100
C802        C  0.69324879  0.17806599  0.79924584    -0.04800
C803        C  0.71577826  0.14970720  0.83136552    -0.01900
C804        C  0.68894190  0.12193504  0.86152338     0.03100
C805        C  0.56543457  0.15854072  0.83079622     0.37700
C806        C  0.76682001  0.14567643  0.83037758     0.37700
C807        C  0.71336670  0.09053052  0.89147675     0.36200
C808        C  0.61738916  0.20198213  0.76429629     0.36200
N809        N  0.73301411  0.06537744  0.91523074    -0.38700
N810        N  0.59086032  0.21667368  0.73892377    -0.38700
N811        N  0.80750195  0.14221217  0.82928794    -0.38100
N812        N  0.52485617  0.16327125  0.83109786    -0.38100
C813        C  0.71230917  0.17179131  0.69205220    -0.04800
C814        C  0.71547985  0.17608987  0.64464083    -0.01900
C815        C  0.68245589  0.15321140  0.61678719     0.03100
C816        C  0.64780545  0.12324989  0.63528937    -0.04800
C817        C  0.65270181  0.11059455  0.68057663    -0.01900
C818        C  0.68847153  0.13107659  0.70686672     0.03100
C819        C  0.75363123  0.20056509  0.62267844     0.37700
C820        C  0.62426364  0.07339180  0.69942590     0.37700
C821        C  0.71127245  0.10081204  0.73877917     0.36200
C822        C  0.68198946  0.16407549  0.56949783     0.36200
N823        N  0.72930925  0.07430789  0.76235366    -0.38700
N824        N  0.68170591  0.17309556  0.53191456    -0.38700
N825        N  0.60156482  0.04376165  0.71457857    -0.38100
N826        N  0.78268617  0.21956220  0.60242670    -0.38100
C827        C  0.35554531  0.12965236  0.63572759    -0.04800
C828        C  0.38015675  0.15818572  0.66598681    -0.01900
C829        C  0.35650643  0.17953198  0.70198006     0.03100
C830        C  0.30682903  0.17967939  0.70481447    -0.04800
C831        C  0.28144898  0.15508271  0.67178319    -0.01900
C832        C  0.30562167  0.12819104  0.63885573     0.03100
C833        C  0.43024247  0.16741877  0.65949356     0.37700
C834        C  0.23025500  0.15596820  0.67297008     0.37700
C835        C  0.27893141  0.09871772  0.60908290     0.36200
C836        C  0.38528264  0.19883035  0.73655526     0.36200
N837        N  0.25739124  0.07506137  0.58555384    -0.38700
N838        N  0.41349740  0.21027283  0.76173607    -0.38700
N839        N  0.18944224  0.15676940  0.67409207    -0.38100
N840        N  0.46996986  0.17509962  0.65431279    -0.38100
C841        C  0.28543945  0.17371812  0.81285246    -0.04800
C842        C  0.30406071  0.13054694  0.79732086    -0.01900
C843        C  0.33751836  0.10543396  0.82282188     0.03100
C844        C  0.34506078  0.11726318  0.86784404    -0.04800
C845        C  0.31435150  0.15044904  0.88755406    -0.01900
C846        C  0.28430316  0.17827664  0.86061046     0.03100
C847        C  0.27832545  0.10435844  0.76436087     0.37700
C848        C  0.31567106  0.15853417  0.93540180     0.37700
C849        C  0.25293698  0.20978851  0.88426249     0.36200
C850        C  0.36020873  0.06438443  0.80388664     0.36200
N851        N  0.22940656  0.23428918  0.90573324    -0.38700
N852        N  0.37813372  0.03150846  0.78884448    -0.38700
N853        N  0.31629635  0.16500207  0.97346025    -0.38100
N854        N  0.25769947  0.08089018  0.73994839    -0.38100
C855        C  0.64375706  0.88930925  0.64547254    -0.04800
C856        C  0.69376813  0.89015881  0.64509032    -0.01900
C857        C  0.72003326  0.85982199  0.67323679     0.03100
C858        C  0.69695082  0.82883183  0.70303147    -0.04800
C859        C  0.64686805  0.82781195  0.70222589    -0.01900
C860        C  0.62075235  0.85952754  0.67617919     0.03100
C861        C  0.71843044  0.92312968  0.61676423     0.37700
C862        C  0.62040592  0.78909846  0.71965290     0.37700
C863        C  0.56934740  0.85793642  0.67880329     0.36200
C864        C  0.77113254  0.85966142  0.67083046     0.36200
N865        N  0.52861397  0.85622245  0.68139152    -0.38700
N866        N  0.81192803  0.85971290  0.66928756    -0.38700
N867        N  0.59389931  0.75993029  0.72848661    -0.38100
N868        N  0.73806971  0.94975492  0.59438015    -0.38100
C869        C  0.71124449  0.82238019  0.80956030    -0.04800
C870        C  0.69656284  0.86802931  0.79756888    -0.01900
C871        C  0.66034073  0.89107189  0.82191573     0.03100
C872        C  0.64524478  0.87319379  0.86345936    -0.04800
C873        C  0.67015945  0.83492892  0.88149218    -0.01900
C874        C  0.70446513  0.81089954  0.85557164     0.03100
C875        C  0.72788125  0.89661855  0.77096173     0.37700
C876        C  0.65875525  0.81845080  0.92607817     0.37700
C877        C  0.73534088  0.77912482  0.87903261     0.36200
C878        C  0.64152089  0.93501366  0.80566640     0.36200
N879        N  0.75904125  0.75420955  0.89951956    -0.38700
N880        N  0.62647075  0.97002502  0.79257467    -0.38700
N881        N  0.64950119  0.80521183  0.96150030    -0.38100
N882        N  0.75326411  0.92123015  0.75187812    -0.38100
C883        C  0.34695642  0.87527296  0.86583676    -0.04800
C884        C  0.29952233  0.88642681  0.85464115    -0.01900
C885        C  0.27347904  0.85613779  0.82593142     0.03100
C886        C  0.29380908  0.81340819  0.81148335    -0.04800
C887        C  0.33393863  0.79824736  0.83537170    -0.01900
C888        C  0.36476191  0.83135998  0.85311130     0.03100
C889        C  0.27879220  0.92998025  0.86983427     0.37700
C890        C  0.32904824  0.75817477  0.86420314     0.37700
C891        C  0.41152079  0.81645634  0.86661108     0.36200
C892        C  0.22779240  0.87036653  0.80927628     0.36200
N893        N  0.44883231  0.80465541  0.87734907    -0.38700
N894        N  0.19210039  0.88297905  0.79505982    -0.38700
N895        N  0.32558287  0.72894480  0.89067084    -0.38100
N896        N  0.26199236  0.96473154  0.88186611    -0.38100
C897        C  0.35988768  0.87358069  0.64096477    -0.04800
C898        C  0.32159602  0.84691019  0.62465590    -0.01900
C899        C  0.28979919  0.82459051  0.65453272     0.03100
C900        C  0.29693879  0.82589336  0.70140014    -0.04800
C901        C  0.32742975  0.86175049  0.71640844    -0.01900
C902        C  0.36291968  0.87962589  0.68775547     0.03100
C903        C  0.31540596  0.84055317  0.57709422     0.37700
C904        C  0.30794756  0.89829876  0.74394874     0.37700
C905        C  0.39940244  0.90843961  0.70733137     0.36200
C906        C  0.24726816  0.80373890  0.63682410     0.36200
N907        N  0.42826685  0.93126474  0.72343652    -0.38700
N908        N  0.21352201  0.78742830  0.62206424    -0.38700
N909        N  0.29446767  0.93155350  0.76205071    -0.38100
N910        N  0.31037458  0.83533431  0.53918961    -0.38100
C911        C  0.37594491  0.60546566  0.86381255    -0.04800
C912        C  0.32639777  0.60443129  0.86307747    -0.01900
C913        C  0.30175487  0.63902632  0.83978673     0.03100
C914        C  0.32590433  0.66998941  0.81069245    -0.04800
C915        C  0.37590393  0.66973880  0.81080124    -0.01900
C916        C  0.40056218  0.63580376  0.83502233     0.03100
C917        C  0.29993171  0.56986283  0.88849196     0.37700
C918        C  0.40242072  0.70929992  0.79416308     0.37700
C919        C  0.45164511  0.63300406  0.83105438     0.36200
C920        C  0.25416552  0.64764488  0.85469580     0.36200
N921        N  0.49229088  0.63073267  0.82779733    -0.38700
N922        N  0.21850667  0.65370411  0.87264799    -0.38700
N923        N  0.42555226  0.74077336  0.78387804    -0.38100
N924        N  0.27843803  0.54243003  0.90833137    -0.38100
C925        C  0.40898127  0.62692180  0.65186930    -0.04800
C926        C  0.41404960  0.67554092  0.65721777    -0.01900
C927        C  0.38377958  0.69982869  0.68654714     0.03100
C928        C  0.34855971  0.67592625  0.71112544    -0.04800
C929        C  0.34882234  0.62639808  0.71075550    -0.01900
C930        C  0.37966375  0.60208337  0.68195266     0.03100
C931        C  0.44922862  0.70128313  0.63185376     0.37700
C932        C  0.31653887  0.59938371  0.73797464     0.37700
C933        C  0.37988328  0.55125472  0.68268304     0.36200
C934        C  0.39141317  0.74915685  0.69278459     0.36200
N935        N  0.37938083  0.51082093  0.68370353    -0.38700
N936        N  0.40184256  0.78768775  0.69808614    -0.38700
N937        N  0.29293733  0.57547423  0.75971496    -0.38100
N938        N  0.47730012  0.72210763  0.61199541    -0.38100
C939        C  0.66577257  0.67855579  0.79066562    -0.04800
C940        C  0.63709540  0.70191608  0.82257874    -0.01900
C941        C  0.61657577  0.67739969  0.85788942     0.03100
C942        C  0.62119195  0.62849746  0.86000780    -0.04800
C943        C  0.64819347  0.60444568  0.82755642    -0.01900
C944        C  0.67026747  0.62937976  0.79288796     0.03100
C945        C  0.62353968  0.75031230  0.81791569     0.37700
C946        C  0.65324493  0.55391511  0.82939805     0.37700
C947        C  0.69156188  0.60325245  0.75672876     0.36200
C948        C  0.59247686  0.70352527  0.89306730     0.36200
N949        N  0.70444007  0.58013373  0.72744792    -0.38700
N950        N  0.57350358  0.72464963  0.92083766    -0.38700
N951        N  0.65777500  0.51372950  0.83101980    -0.38100
N952        N  0.60797757  0.78771521  0.81656203    -0.38100
C953        C  0.63978687  0.62651499  0.61468097    -0.04800
C954        C  0.62128545  0.62103519  0.65797197    -0.01900
C955        C  0.63043060  0.65499352  0.69076009     0.03100
C956        C  0.66315505  0.69135934  0.68158192    -0.04800
C957        C  0.66958551  0.70233625  0.63593541    -0.01900
C958        C  0.66316586  0.66797975  0.60338950     0.03100
C959        C  0.58875233  0.58303237  0.66743228     0.37700
C960        C  0.66829874  0.75039967  0.62087051     0.37700
C961        C  0.67557890  0.67772081  0.55719311     0.36200
C962        C  0.59579736  0.65916735  0.72619941     0.36200
N963        N  0.68537895  0.68554977  0.52045476    -0.38700
N964        N  0.56628650  0.66142097  0.75300081    -0.38700
N965        N  0.66684042  0.78778385  0.60626687    -0.38100
N966        N  0.56255337  0.55303370  0.67479321    -0.38100
C967        C  0.62231500  0.37496993  0.86736994    -0.04800
C968        C  0.67028235  0.36686626  0.87417587    -0.01900
C969        C  0.69739709  0.34638277  0.84053859     0.03100
C970        C  0.67619688  0.32620823  0.80247377    -0.04800
C971        C  0.62673267  0.33290278  0.79676696    -0.01900
C972        C  0.60012072  0.35751854  0.82922697     0.03100
C973        C  0.69236878  0.37989644  0.91613472     0.37700
C974        C  0.60260080  0.31913715  0.75675387     0.37700
C975        C  0.54990982  0.36542222  0.82335884     0.36200
C976        C  0.74686934  0.35631999  0.84270490     0.36200
N977        N  0.50985848  0.37168473  0.81901518    -0.38700
N978        N  0.78408166  0.37104286  0.84884525    -0.38700
N979        N  0.58065456  0.31147748  0.72527024    -0.38100
N980        N  0.70998919  0.39009675  0.94938832    -0.38100
C981        C  0.68416560  0.32773000  0.69451262    -0.04800
C982        C  0.68323882  0.37750705  0.69671373    -0.01900
C983        C  0.66572231  0.40369551  0.66040851     0.03100
C984        C  0.64884761  0.38057971  0.62249687    -0.04800
C985        C  0.65174638  0.33199142  0.61938987    -0.01900
C986        C  0.66452446  0.30605709  0.65657507     0.03100
C987        C  0.69338942  0.40278486  0.73711153     0.37700
C988        C  0.63911971  0.30809258  0.57829151     0.37700
C989        C  0.64557608  0.25957449  0.65849266     0.36200
C990        C  0.66401133  0.45437455  0.66234064     0.36200
N991        N  0.62491813  0.22498829  0.65622917    -0.38700
N992        N  0.66316341  0.49478240  0.66370503    -0.38700
N993        N  0.62911924  0.28897441  0.54574380    -0.38100
N994        N  0.69821433  0.42581176  0.76844179    -0.38100
C995        C  0.32391422  0.32586392  0.81425416    -0.04800
C996        C  0.34744895  0.30186298  0.84901308    -0.01900
C997        C  0.36799899  0.32618625  0.88430790     0.03100
C998        C  0.37100007  0.37502949  0.88280028    -0.04800
C999        C  0.35104442  0.39964564  0.84688054    -0.01900
C1000       C  0.32655997  0.37541749  0.81323651     0.03100
C1001       C  0.36080309  0.25346548  0.84492168     0.37700
C1002       C  0.35810807  0.44972156  0.84300760     0.37700
C1003       C  0.30809196  0.40238626  0.77656090     0.36200
C1004       C  0.38716057  0.30025874  0.92186361     0.36200
N1005       N  0.29660453  0.42668800  0.74780403    -0.38700
N1006       N  0.40242684  0.27936978  0.95149797    -0.38700
N1007       N  0.36408905  0.48949738  0.83918595    -0.38100
N1008       N  0.37743812  0.21656757  0.84465204    -0.38100
C1009       C  0.33566461  0.32894329  0.70902897    -0.04800
C1010       C  0.31654929  0.35227344  0.67162377    -0.01900
C1011       C  0.34548613  0.37487698  0.64105687     0.03100
C1012       C  0.39273397  0.38281677  0.65151277    -0.04800
C1013       C  0.41246858  0.36357155  0.68995108    -0.01900
C1014       C  0.38469127  0.33511112  0.71806845     0.03100
C1015       C  0.26704582  0.36153515  0.66663415     0.37700
C1016       C  0.46131223  0.37376576  0.70052313     0.37700
C1017       C  0.40808393  0.31497278  0.75603534     0.36200
C1018       C  0.32586311  0.39011942  0.59857966     0.36200
N1019       N  0.43075550  0.30222120  0.78555687    -0.38700
N1020       N  0.30999117  0.40219034  0.56505822    -0.38700
N1021       N  0.50010658  0.38249407  0.70872292    -0.38100
N1022       N  0.22996765  0.37543982  0.65803561    -0.38100
loop_ 
_geom_bond_atom_site_label_1 
_geom_bond_atom_site_label_2 
_geom_bond_distance 
_geom_bond_site_symmetry_2 
_ccdc_geom_bond_type 
N1            N2   1.317       .  A
N1            N7   1.311       .  A
N1         Mn541   2.149       .  S
N2            C9   1.347       .  A
N3            N5   1.312       .  A
N3            N4   1.314       .  A
N3         Mn530   2.139       .  S
N4           C10   1.343       .  A
N5            N6   1.312       .  A
N5          Mn30   2.187       .  S
N6           C10   1.353       .  A
N7            N8   1.309       .  A
N7          Mn19   2.167       .  S
N8            C9   1.348       .  A
C9          C473   1.454       .  S
C10         C456   1.451       .  S
N11          N17   1.312       .  A
N11          N12   1.318       .  A
N11        Mn552   2.159       .  S
N12          C20   1.347       .  A
N13          N14   1.313       .  A
N13          N15   1.311       .  A
N13         Mn19   2.145       .  S
N14          C21   1.344       .  A
N15          N16   1.312       .  A
N15         Mn41   2.172       .  S
N16          C21   1.352       .  A
N17          N18   1.315       .  A
N17        Mn530   2.193       .  S
N18          C20   1.353       .  A
Mn19        N514   2.153   1_554  S
Mn19        N528   2.185   1_554  S
Mn19        Cl43   2.505       .  S
C20         C487   1.468       .  S
C21         C501   1.450       .  S
N22          N23   1.316       .  A
N22          N28   1.312       .  A
N22         Mn30   2.158       .  S
N23          C31   1.348       .  A
N24          N26   1.312       .  A
N24          N25   1.309       .  A
N24        Mn553   2.146       .  S
N25          C32   1.341       .  A
N26          N27   1.321       .  A
N26        Mn541   2.197       .  S
N27          C32   1.356       .  A
N28          N29   1.312       .  A
N28         Mn42   2.182       .  S
N29          C31   1.352       .  A
Mn30        N512   2.158       .  S
Mn30        N537   2.192       .  S
Mn30       Cl554   2.533       .  S
C31         C431   1.464       .  S
C32         C442   1.455       .  S
N33          N34   1.317       .  A
N33          N39   1.308       .  A
N33         Mn41   2.169       .  S
N34          C44   1.354       .  A
N35          N36   1.308       .  A
N35          N37   1.308       .  A
N35         Mn42   2.146       .  S
N36          C45   1.347       .  A
N37          N38   1.315       .  A
N37        Mn552   2.158       .  S
N38          C45   1.351       .  A
N39          N40   1.312       .  A
N39        Mn553   2.157       .  S
N40          C44   1.347       .  A
Mn41        N522   2.167   1_554  S
Mn41        N548   2.168   1_554  S
Mn41        Cl43   2.529       .  S
Mn42        N535   2.148       .  S
Mn42        N550   2.196       .  S
Mn42       Cl554   2.505       .  S
Cl43       Mn541   2.536       .  S
Cl43       Mn553   2.500       .  S
C44         C414   1.477       .  S
C45         C400   1.465       .  S
N46          N47   1.323       .  A
N46          N52   1.319       .  A
N46         Mn75   2.214       .  S
N47          C54   1.355       .  A
N48          N50   1.317       .  A
N48          N49   1.318       .  A
N48         Mn64   2.210   1_545  S
N49          C55   1.355       .  A
N50          N51   1.324       .  A
N50         Mn75   2.208   1_545  S
N51          C55   1.354       .  A
N52          N53   1.325       .  A
N52         Mn64   2.237       .  S
N53          C54   1.358       .  A
C54         C386   1.515       .  S
C55         C316   1.509       .  S
N56          N62   1.319       .  A
N56          N57   1.321       .  A
N56         Mn86   2.196   1_544  S
N57          C65   1.349       .  A
N58          N59   1.316       .  A
N58          N60   1.317       .  A
N58         Mn64   2.199       .  S
N59          C66   1.352       .  A
N60          N61   1.328       .  A
N60         Mn86   2.220   1_554  S
N61          C66   1.357       .  A
N62          N63   1.329       .  A
N62         Mn64   2.250   1_545  S
N63          C65   1.361       .  A
Mn64        Cl88   2.560   1_554  S
C65         C305   1.508       .  S
C66         C344   1.510       .  S
N67          N68   1.318       .  A
N67          N73   1.320       .  A
N67        Mn586   2.193   1_545  S
N68          C76   1.348       .  A
N69          N71   1.322       .  A
N69          N70   1.325       .  A
N69         Mn87   2.229       .  S
N70          C77   1.355       .  A
N71          N72   1.322       .  A
N71        Mn586   2.210       .  S
N72          C77   1.349       .  A
N73          N74   1.329       .  A
N73         Mn87   2.249   1_545  S
N74          C76   1.360       .  A
Mn75        N578   2.193   1_564  S
Mn75        N582   2.220   1_554  S
Mn75        Cl88   2.556   1_554  S
C76         C333   1.502       .  S
C77         C372   1.494       .  S
N78          N79   1.318       .  A
N78          N84   1.321       .  A
N78        Mn597   2.189   1_565  S
N79          C89   1.346       .  A
N80          N81   1.320       .  A
N80          N82   1.319       .  A
N80         Mn87   2.213   1_545  S
N81          C90   1.355       .  A
N82          N83   1.322       .  A
N82        Mn597   2.212       .  S
N83          C90   1.353       .  A
N84          N85   1.329       .  A
N84         Mn87   2.256       .  S
N85          C89   1.361       .  A
Mn86        N589   2.195       .  S
Mn86        N593   2.207   1_565  S
Mn86        Cl88   2.550       .  S
Mn87       Cl599   2.572   1_565  S
Cl88       Mn598   2.570       .  S
C89         C361   1.501       .  S
C90         C288   1.505       .  S
N91          N92   1.323       .  A
N91          N97   1.322       .  A
N91        Mn120   2.234   1_554  S
N92          C99   1.356       .  A
N93          N95   1.324       .  A
N93          N94   1.326       .  A
N93        Mn109   2.233       .  S
N94         C100   1.354       .  A
N95          N96   1.326       .  A
N95        Mn120   2.240   1_454  S
N96         C100   1.354       .  A
N97          N98   1.327       .  A
N97        Mn109   2.239   1_655  S
N98          C99   1.357       .  A
C99         C277   1.510       .  S
C100        C176   1.499       .  S
N101        N107   1.320       .  A
N101        N102   1.320       .  A
N101       Mn131   2.197   1_455  S
N102        C110   1.348       .  A
N103        N104   1.322       .  A
N103        N105   1.318       .  A
N103       Mn109   2.226   1_655  S
N104        C111   1.358       .  A
N105        N106   1.323       .  A
N105       Mn131   2.209       .  S
N106        C111   1.354       .  A
N107        N108   1.330       .  A
N107       Mn109   2.257       .  S
N108        C110   1.363       .  A
Mn109      Cl133   2.573   1_454  S
C110        C218   1.509       .  S
C111        C235   1.513       .  S
N112        N113   1.328       .  A
N112        N118   1.319       .  A
N112       Mn631   2.233   1_455  S
N113        C121   1.359       .  A
N114        N116   1.319       .  A
N114        N115   1.322       .  A
N114       Mn132   2.214       .  S
N115        C122   1.355       .  A
N116        N117   1.327       .  A
N116       Mn631   2.240       .  S
N117        C122   1.360       .  A
N118        N119   1.324       .  A
N118       Mn132   2.234   1_455  S
N119        C121   1.357       .  A
Mn120       N623   2.247   1_655  S
Mn120       N627   2.255       .  S
Mn120      Cl133   2.572       .  S
C121        C193   1.519       .  S
C122        C263   1.523       .  S
N123        N124   1.322       .  A
N123        N129   1.320       .  A
N123       Mn642   2.209   1_655  S
N124        C134   1.351       .  A
N125        N126   1.314       .  A
N125        N127   1.317       .  A
N125       Mn132   2.197   1_455  S
N126        C135   1.351       .  A
N127        N128   1.322       .  A
N127       Mn642   2.191       .  S
N128        C135   1.353       .  A
N129        N130   1.328       .  A
N129       Mn132   2.240       .  S
N130        C134   1.359       .  A
Mn131       N634   2.191   1_554  S
Mn131       N638   2.207   1_654  S
Mn131      Cl133   2.559   1_554  S
Mn132      Cl644   2.560   1_655  S
Cl133      Mn643   2.553       .  S
C134        C249   1.509       .  S
C135        C204   1.499       .  S
C136        H137   1.095       .  S
C136        C142   1.548       .  S
C136        C141   1.568       .  S
C136        C140   1.550       .  S
C138        H139   1.090       .  S
C138        C144   1.544       .  S
C138        C143   1.539       .  S
C138        C145   1.566       .  S
C140        C143   1.374       .  D
C140        C498   1.498       .  S
C141        C144   1.394       .  D
C141        C221   1.566       .  S
C142        C145   1.399       .  D
C142        C319   1.510       .  S
C143        C484   1.516       .  S
C144        C207   1.499       .  S
C145        C330   1.557       .  S
C146        H147   1.094       .  S
C146        C152   1.548       .  S
C146        C151   1.575       .  S
C146        C150   1.543       .  S
C148        H149   1.093       .  S
C148        C154   1.545       .  S
C148        C153   1.539       .  S
C148        C155   1.571       .  S
C150        C153   1.369       .  D
C150        C470   1.500       .  S
C151        C154   1.397       .  D
C151        C302   1.561       .  S
C152        C155   1.399       .  D
C152        C232   1.520       .  S
C153        C459   1.497       .  S
C154        C291   1.515       .  S
C155        C246   1.562       .  S
C156        H157   1.099       .  S
C156        C162   1.551       .  S
C156        C161   1.569       .  S
C156        C160   1.547       .  S
C158        H159   1.103       .  S
C158        C164   1.555       .  S
C158        C163   1.535       .  S
C158        C165   1.565       .  S
C160        C163   1.373       .  D
C160        C417   1.500       .  S
C161        C164   1.400       .  D
C161        C389   1.553       .  S
C162        C165   1.393       .  D
C162        C179   1.542       .  S
C163        C403   1.500       .  S
C164        C375   1.528       .  S
C165        C190   1.531       .  S
C166        H167   1.074       .  S
C166        C172   1.537       .  S
C166        C171   1.569       .  S
C166        C170   1.544       .  S
C168        H169   1.095       .  S
C168        C174   1.548       .  S
C168        C173   1.545       .  S
C168        C175   1.575       .  S
C170        C173   1.382       .  D
C170        C445   1.517       .  S
C171        C174   1.394       .  D
C171        C274   1.563       .  S
C172        C175   1.399       .  D
C172        C347   1.524       .  S
C173        C428   1.503       .  S
C174        C260   1.521       .  S
C175        C358   1.556       .  S
C176        C177   1.401       .  A
C176        C181   1.412       .  A
C177        C178   1.419       .  A
C177        C182   1.455       .  S
C178        C179   1.436       .  A
C178        C185   1.442       .  S
C179        C180   1.422       .  A
C180        C181   1.424       .  A
C180        C183   1.448       .  S
C181        C184   1.449       .  S
C182        N189   1.157       .  T
C183        N188   1.157       .  T
C184        N186   1.157       .  T
C185        N187   1.156       .  T
C190        C191   1.422       .  A
C190        C195   1.420       .  A
C191        C192   1.419       .  A
C191        C196   1.444       .  S
C192        C193   1.415       .  A
C192        C199   1.451       .  S
C193        C194   1.420       .  A
C194        C195   1.426       .  A
C194        C197   1.450       .  S
C195        C198   1.447       .  S
C196        N203   1.157       .  T
C197        N202   1.157       .  T
C198        N200   1.156       .  T
C199        N201   1.157       .  T
C204        C205   1.414       .  A
C204        C209   1.422       .  A
C205        C206   1.403       .  A
C205        C210   1.454       .  S
C206        C207   1.411       .  A
C206        C213   1.439       .  S
C207        C208   1.412       .  A
C208        C209   1.416       .  A
C208        C211   1.452       .  S
C209        C212   1.450       .  S
C210        N217   1.157       .  T
C211        N216   1.158       .  T
C212        N214   1.158       .  T
C213        N215   1.153       .  T
C218        C219   1.416       .  A
C218        C223   1.411       .  A
C219        C220   1.428       .  A
C219        C224   1.453       .  S
C220        C221   1.433       .  A
C220        C227   1.446       .  S
C221        C222   1.421       .  A
C222        C223   1.419       .  A
C222        C225   1.447       .  S
C223        C226   1.449       .  S
C224        N231   1.157       .  T
C225        N230   1.157       .  T
C226        N228   1.157       .  T
C227        N229   1.158       .  T
C232        C233   1.418       .  A
C232        C237   1.414       .  A
C233        C234   1.415       .  A
C233        C238   1.438       .  S
C234        C235   1.414       .  A
C234        C241   1.455       .  S
C235        C236   1.423       .  A
C236        C237   1.422       .  A
C236        C239   1.449       .  S
C237        C240   1.451       .  S
C238        N245   1.153       .  T
C239        N244   1.157       .  T
C240        N242   1.157       .  T
C241        N243   1.158       .  T
C246        C247   1.436       .  A
C246        C251   1.417       .  A
C247        C248   1.427       .  A
C247        C252   1.446       .  S
C248        C249   1.414       .  A
C248        C255   1.454       .  S
C249        C250   1.413       .  A
C250        C251   1.417       .  A
C250        C253   1.448       .  S
C251        C254   1.446       .  S
C252        N259   1.158       .  T
C253        N258   1.157       .  T
C254        N256   1.157       .  T
C255        N257   1.158       .  T
C260        C261   1.414       .  A
C260        C265   1.416       .  A
C261        C262   1.422       .  A
C261        C266   1.452       .  S
C262        C263   1.424       .  A
C262        C269   1.450       .  S
C263        C264   1.423       .  A
C264        C265   1.419       .  A
C264        C267   1.453       .  S
C265        C268   1.445       .  S
C266        N273   1.157       .  T
C267        N272   1.158       .  T
C268        N270   1.156       .  T
C269        N271   1.158       .  T
C274        C275   1.422       .  A
C274        C279   1.429       .  A
C275        C276   1.424       .  A
C275        C280   1.446       .  S
C276        C277   1.416       .  A
C276        C283   1.450       .  S
C277        C278   1.410       .  A
C278        C279   1.418       .  A
C278        C281   1.453       .  S
C279        C282   1.444       .  S
C280        N287   1.157       .  T
C281        N286   1.157       .  T
C282        N284   1.157       .  T
C283        N285   1.157       .  T
C288        C289   1.412       .  A
C288        C293   1.422       .  A
C289        C290   1.411       .  A
C289        C294   1.456       .  S
C290        C291   1.416       .  A
C290        C297   1.437       .  S
C291        C292   1.414       .  A
C292        C293   1.419       .  A
C292        C295   1.451       .  S
C293        C296   1.450       .  S
C294        N301   1.158       .  T
C295        N300   1.157       .  T
C296        N298   1.157       .  T
C297        N299   1.154       .  T
C302        C303   1.432       .  A
C302        C307   1.421       .  A
C303        C304   1.425       .  A
C303        C308   1.446       .  S
C304        C305   1.414       .  A
C304        C311   1.453       .  S
C305        C306   1.412       .  A
C306        C307   1.421       .  A
C306        C309   1.449       .  S
C307        C310   1.446       .  S
C308        N315   1.158       .  T
C309        N314   1.157       .  T
C310        N312   1.157       .  T
C311        N313   1.158       .  T
C316        C317   1.415       .  A
C316        C321   1.424       .  A
C317        C318   1.410       .  A
C317        C322   1.457       .  S
C318        C319   1.413       .  A
C318        C325   1.437       .  S
C319        C320   1.414       .  A
C320        C321   1.421       .  A
C320        C323   1.452       .  S
C321        C324   1.449       .  S
C322        N329   1.158       .  T
C323        N328   1.157       .  T
C324        N326   1.158       .  T
C325        N327   1.153       .  T
C330        C331   1.418       .  A
C330        C335   1.435       .  A
C331        C332   1.420       .  A
C331        C336   1.446       .  S
C332        C333   1.412       .  A
C332        C339   1.449       .  S
C333        C334   1.413       .  A
C334        C335   1.420       .  A
C334        C337   1.455       .  S
C335        C338   1.447       .  S
C336        N343   1.157       .  T
C337        N342   1.158       .  T
C338        N340   1.158       .  T
C339        N341   1.157       .  T
C344        C345   1.421       .  A
C344        C349   1.413       .  A
C345        C346   1.424       .  A
C345        C350   1.449       .  S
C346        C347   1.419       .  A
C346        C353   1.450       .  S
C347        C348   1.416       .  A
C348        C349   1.411       .  A
C348        C351   1.435       .  S
C349        C352   1.457       .  S
C350        N357   1.157       .  T
C351        N356   1.152       .  T
C352        N354   1.158       .  T
C353        N355   1.157       .  T
C358        C359   1.421       .  A
C358        C363   1.434       .  A
C359        C360   1.419       .  A
C359        C364   1.447       .  S
C360        C361   1.410       .  A
C360        C367   1.449       .  S
C361        C362   1.412       .  A
C362        C363   1.423       .  A
C362        C365   1.454       .  S
C363        C366   1.446       .  S
C364        N371   1.157       .  T
C365        N370   1.158       .  T
C366        N368   1.158       .  T
C367        N369   1.157       .  T
C372        C373   1.425       .  A
C372        C377   1.405       .  A
C373        C374   1.431       .  A
C373        C378   1.448       .  S
C374        C375   1.414       .  A
C374        C381   1.447       .  S
C375        C376   1.415       .  A
C376        C377   1.400       .  A
C376        C379   1.445       .  S
C377        C380   1.451       .  S
C378        N385   1.157       .  T
C379        N384   1.157       .  T
C380        N382   1.157       .  T
C381        N383   1.157       .  T
C386        C387   1.420       .  A
C386        C391   1.420       .  A
C387        C388   1.421       .  A
C387        C392   1.451       .  S
C388        C389   1.422       .  A
C388        C395   1.451       .  S
C389        C390   1.420       .  A
C390        C391   1.418       .  A
C390        C393   1.439       .  S
C391        C394   1.452       .  S
C392        N399   1.158       .  T
C393        N398   1.158       .  T
C394        N396   1.158       .  T
C395        N397   1.157       .  T
C400        C401   1.408       .  A
C400        C405   1.407       .  A
C401        C402   1.403       .  A
C401        C406   1.456       .  S
C402        C403   1.421       .  A
C402        C409   1.442       .  S
C403        C404   1.416       .  A
C404        C405   1.395       .  A
C404        C407   1.448       .  S
C405        C408   1.456       .  S
C406        N413   1.158       .  T
C407        N412   1.157       .  T
C408        N410   1.158       .  T
C409        N411   1.156       .  T
C414        C415   1.410       .  A
C414        C419   1.407       .  A
C415        C416   1.402       .  A
C415        C420   1.455       .  S
C416        C417   1.414       .  A
C416        C423   1.441       .  S
C417        C418   1.423       .  A
C418        C419   1.407       .  A
C418        C421   1.446       .  S
C419        C422   1.454       .  S
C420        N427   1.158       .  T
C421        N426   1.157       .  T
C422        N424   1.158       .  T
C423        N425   1.153       .  T
C428        C429   1.417       .  A
C428        C433   1.426       .  A
C429        C430   1.393       .  A
C429        C434   1.435       .  S
C430        C431   1.401       .  A
C430        C437   1.461       .  S
C431        C432   1.403       .  A
C432        C433   1.413       .  A
C432        C435   1.451       .  S
C433        C436   1.445       .  S
C434        N441   1.154       .  T
C435        N440   1.157       .  T
C436        N438   1.157       .  T
C437        N439   1.158       .  T
C442        C443   1.412       .  A
C442        C447   1.405       .  A
C443        C444   1.409       .  A
C443        C448   1.453       .  S
C444        C445   1.417       .  A
C444        C451   1.446       .  S
C445        C446   1.409       .  A
C446        C447   1.395       .  A
C446        C449   1.446       .  S
C447        C450   1.454       .  S
C448        N455   1.157       .  T
C449        N454   1.157       .  T
C450        N452   1.157       .  T
C451        N453   1.157       .  T
C456        C457   1.391       .  A
C456        C461   1.397       .  A
C457        C458   1.387       .  A
C457        C462   1.459       .  S
C458        C459   1.417       .  A
C458        C465   1.435       .  S
C459        C460   1.427       .  A
C460        C461   1.412       .  A
C460        C463   1.443       .  S
C461        C464   1.449       .  S
C462        N469   1.157       .  T
C463        N468   1.156       .  T
C464        N466   1.156       .  T
C465        N467   1.154       .  T
C470        C471   1.427       .  A
C470        C475   1.416       .  A
C471        C472   1.411       .  A
C471        C476   1.442       .  S
C472        C473   1.399       .  A
C472        C479   1.453       .  S
C473        C474   1.395       .  A
C474        C475   1.390       .  A
C474        C477   1.460       .  S
C475        C478   1.436       .  S
C476        N483   1.157       .  T
C477        N482   1.158       .  T
C478        N480   1.153       .  T
C479        N481   1.157       .  T
C484        C485   1.418       .  A
C484        C489   1.428       .  A
C485        C486   1.394       .  A
C485        C490   1.433       .  S
C486        C487   1.394       .  A
C486        C493   1.458       .  S
C487        C488   1.407       .  A
C488        C489   1.418       .  A
C488        C491   1.453       .  S
C489        C492   1.444       .  S
C490        N497   1.153       .  T
C491        N496   1.158       .  T
C492        N494   1.157       .  T
C493        N495   1.157       .  T
C498        C499   1.418       .  A
C498        C503   1.426       .  A
C499        C500   1.387       .  A
C499        C504   1.434       .  S
C500        C501   1.395       .  A
C500        C507   1.460       .  S
C501        C502   1.398       .  A
C502        C503   1.410       .  A
C502        C505   1.451       .  S
C503        C506   1.441       .  S
C504        N511   1.154       .  T
C505        N510   1.157       .  T
C506        N508   1.155       .  T
C507        N509   1.158       .  T
N512        N513   1.318       .  A
N512        N518   1.313       .  A
N513        C520   1.347       .  A
N514        N516   1.313       .  A
N514        N515   1.315       .  A
N515        C521   1.345       .  A
N516        N517   1.314       .  A
N516       Mn541   2.192   1_556  S
N517        C521   1.353       .  A
N518        N519   1.312       .  A
N518       Mn530   2.185       .  S
N519        C520   1.351       .  A
C520        C984   1.461       .  S
C521        C967   1.461       .  S
N522        N528   1.311       .  A
N522        N523   1.317       .  A
N523        C531   1.348       .  A
N524        N525   1.314       .  A
N524        N526   1.309       .  A
N524       Mn530   2.144       .  S
N525        C532   1.346       .  A
N526        N527   1.310       .  A
N526       Mn552   2.162       .  S
N527        C532   1.349       .  A
N528        N529   1.316       .  A
N529        C531   1.353       .  A
Mn530      Cl554   2.514       .  S
C531        C998   1.472       .  S
C532       C1012   1.451       .  S
N533        N534   1.313       .  A
N533        N539   1.309       .  A
N533       Mn541   2.144   1_556  S
N534        C542   1.346       .  A
N535        N537   1.313       .  A
N535        N536   1.308       .  A
N536        C543   1.341       .  A
N537        N538   1.322       .  A
N538        C543   1.353       .  A
N539        N540   1.312       .  A
N539       Mn553   2.169   1_556  S
N540        C542   1.351       .  A
C542        C942   1.467       .  S
C543        C953   1.454       .  S
N544        N545   1.311       .  A
N544        N550   1.310       .  A
N544       Mn552   2.152       .  S
N545        C555   1.347       .  A
N546        N547   1.311       .  A
N546        N548   1.310       .  A
N546       Mn553   2.153   1_556  S
N547        C556   1.349       .  A
N548        N549   1.314       .  A
N549        C556   1.351       .  A
N550        N551   1.321       .  A
N551        C555   1.358       .  A
Mn552      Cl554   2.521       .  S
C555        C925   1.483       .  S
C556        C911   1.471       .  S
N557        N558   1.322       .  A
N557        N563   1.317       .  A
N557       Mn586   2.209       .  S
N558        C565   1.355       .  A
N559        N561   1.316       .  A
N559        N560   1.313       .  A
N559       Mn575   2.189       .  S
N560        C566   1.350       .  A
N561        N562   1.328       .  A
N561       Mn586   2.220   1_545  S
N562        C566   1.358       .  A
N563        N564   1.324       .  A
N563       Mn575   2.227   1_565  S
N564        C565   1.358       .  A
C565        C897   1.513       .  S
C566        C827   1.501       .  S
N567        N573   1.318       .  A
N567        N568   1.319       .  A
N567       Mn597   2.195       .  S
N568        C576   1.349       .  A
N569        N570   1.314       .  A
N569        N571   1.316       .  A
N569       Mn575   2.180   1_565  S
N570        C577   1.349       .  A
N571        N572   1.328       .  A
N571       Mn597   2.224   1_565  S
N572        C577   1.359       .  A
N573        N574   1.328       .  A
N573       Mn575   2.233       .  S
N574        C576   1.359       .  A
Mn575      Cl599   2.554       .  S
C576        C816   1.507       .  S
C577        C855   1.504       .  S
N578        N579   1.318       .  A
N578        N584   1.319       .  A
N579        C587   1.349       .  A
N580        N582   1.321       .  A
N580        N581   1.323       .  A
N580       Mn598   2.229       .  S
N581        C588   1.355       .  A
N582        N583   1.326       .  A
N583        C588   1.354       .  A
N584        N585   1.326       .  A
N584       Mn598   2.234   1_545  S
N585        C587   1.358       .  A
Mn586      Cl599   2.555   1_565  S
C587        C844   1.500       .  S
C588        C883   1.498       .  S
N589        N590   1.317       .  A
N589        N595   1.321       .  A
N590        C600   1.347       .  A
N591        N592   1.320       .  A
N591        N593   1.318       .  A
N591       Mn598   2.219   1_545  S
N592        C601   1.357       .  A
N593        N594   1.323       .  A
N594        C601   1.353       .  A
N595        N596   1.327       .  A
N595       Mn598   2.236       .  S
N596        C600   1.358       .  A
Mn597      Cl599   2.547       .  S
C600        C872   1.493       .  S
C601        C799   1.506       .  S
N602        N603   1.321       .  A
N602        N608   1.321       .  A
N602       Mn631   2.222       .  S
N603        C610   1.353       .  A
N604        N606   1.323       .  A
N604        N605   1.326       .  A
N604       Mn620   2.238       .  S
N605        C611   1.355       .  A
N606        N607   1.326       .  A
N606       Mn631   2.236   1_455  S
N607        C611   1.354       .  A
N608        N609   1.327       .  A
N608       Mn620   2.229   1_655  S
N609        C610   1.355       .  A
C610        C788   1.496       .  S
C611        C687   1.503       .  S
N612        N618   1.320       .  A
N612        N613   1.322       .  A
N612       Mn642   2.210       .  S
N613        C621   1.350       .  A
N614        N615   1.319       .  A
N614        N616   1.318       .  A
N614       Mn620   2.228   1_655  S
N615        C622   1.357       .  A
N616        N617   1.325       .  A
N616       Mn642   2.200   1_655  S
N617        C622   1.354       .  A
N618        N619   1.327       .  A
N618       Mn620   2.237       .  S
N619        C621   1.358       .  A
Mn620      Cl644   2.571       .  S
C621        C729   1.504       .  S
C622        C746   1.509       .  S
N623        N624   1.328       .  A
N623        N629   1.318       .  A
N624        C632   1.363       .  A
N625        N627   1.319       .  A
N625        N626   1.321       .  A
N625       Mn643   2.213       .  S
N626        C633   1.354       .  A
N627        N628   1.331       .  A
N628        C633   1.363       .  A
N629        N630   1.322       .  A
N629       Mn643   2.215   1_455  S
N630        C632   1.354       .  A
Mn631      Cl644   2.566   1_655  S
C632        C704   1.525       .  S
C633        C774   1.528       .  S
N634        N635   1.319       .  A
N634        N640   1.319       .  A
N635        C645   1.348       .  A
N636        N637   1.314       .  A
N636        N638   1.316       .  A
N636       Mn643   2.198   1_455  S
N637        C646   1.350       .  A
N638        N639   1.327       .  A
N639        C646   1.357       .  A
N640        N641   1.326       .  A
N640       Mn643   2.225       .  S
N641        C645   1.357       .  A
Mn642      Cl644   2.559       .  S
C645        C760   1.499       .  S
C646        C715   1.507       .  S
C647        H648   1.094       .  S
C647        C653   1.542       .  S
C647        C652   1.562       .  S
C647        C651   1.548       .  S
C649        H650   1.089       .  S
C649        C655   1.551       .  S
C649        C654   1.535       .  S
C649        C656   1.568       .  S
C651        C654   1.367       .  D
C651       C1009   1.501       .  S
C652        C655   1.399       .  D
C652        C732   1.562       .  S
C653        C656   1.402       .  D
C653        C830   1.506       .  S
C654        C995   1.505       .  S
C655        C718   1.509       .  S
C656        C841   1.558       .  S
C657        H658   1.095       .  S
C657        C663   1.545       .  S
C657        C662   1.571       .  S
C657        C661   1.545       .  S
C659        H660   1.097       .  S
C659        C665   1.548       .  S
C659        C664   1.547       .  S
C659        C666   1.572       .  S
C661        C664   1.374       .  D
C661        C981   1.505       .  S
C662        C665   1.397       .  D
C662        C813   1.558       .  S
C663        C666   1.398       .  D
C663        C743   1.518       .  S
C664        C970   1.507       .  S
C665        C802   1.515       .  S
C666        C757   1.554       .  S
C667        H668   1.100       .  S
C667        C673   1.554       .  S
C667        C672   1.568       .  S
C667        C671   1.543       .  S
C669        H670   1.105       .  S
C669        C675   1.557       .  S
C669        C674   1.538       .  S
C669        C676   1.562       .  S
C671        C674   1.370       .  D
C671        C928   1.500       .  S
C672        C675   1.404       .  D
C672        C900   1.552       .  S
C673        C676   1.393       .  D
C673        C690   1.539       .  S
C674        C914   1.501       .  S
C675        C886   1.528       .  S
C676        C701   1.534       .  S
C677        H678   1.079       .  S
C677        C683   1.545       .  S
C677        C682   1.565       .  S
C677        C681   1.554       .  S
C679        H680   1.093       .  S
C679        C685   1.541       .  S
C679        C684   1.540       .  S
C679        C686   1.561       .  S
C681        C684   1.387       .  D
C681        C956   1.532       .  S
C682        C685   1.391       .  D
C682        C785   1.547       .  S
C683        C686   1.396       .  D
C683        C858   1.522       .  S
C684        C939   1.485       .  S
C685        C771   1.525       .  S
C686        C869   1.550       .  S
C687        C688   1.404       .  A
C687        C692   1.413       .  A
C688        C689   1.420       .  A
C688        C693   1.454       .  S
C689        C690   1.433       .  A
C689        C696   1.443       .  S
C690        C691   1.420       .  A
C691        C692   1.424       .  A
C691        C694   1.448       .  S
C692        C695   1.448       .  S
C693        N700   1.157       .  T
C694        N699   1.157       .  T
C695        N697   1.157       .  T
C696        N698   1.156       .  T
C701        C702   1.423       .  A
C701        C706   1.421       .  A
C702        C703   1.425       .  A
C702        C707   1.446       .  S
C703        C704   1.422       .  A
C703        C710   1.451       .  S
C704        C705   1.419       .  A
C705        C706   1.424       .  A
C705        C708   1.451       .  S
C706        C709   1.445       .  S
C707        N714   1.157       .  T
C708        N713   1.157       .  T
C709        N711   1.155       .  T
C710        N712   1.157       .  T
C715        C716   1.412       .  A
C715        C720   1.420       .  A
C716        C717   1.401       .  A
C716        C721   1.454       .  S
C717        C718   1.412       .  A
C717        C724   1.437       .  S
C718        C719   1.417       .  A
C719        C720   1.422       .  A
C719        C722   1.450       .  S
C720        C723   1.448       .  S
C721        N728   1.157       .  T
C722        N727   1.158       .  T
C723        N725   1.157       .  T
C724        N726   1.154       .  T
C729        C730   1.412       .  A
C729        C734   1.412       .  A
C730        C731   1.425       .  A
C730        C735   1.453       .  S
C731        C732   1.436       .  A
C731        C738   1.446       .  S
C732        C733   1.418       .  A
C733        C734   1.419       .  A
C733        C736   1.447       .  S
C734        C737   1.450       .  S
C735        N742   1.158       .  T
C736        N741   1.157       .  T
C737        N739   1.157       .  T
C738        N740   1.158       .  T
C743        C744   1.415       .  A
C743        C748   1.416       .  A
C744        C745   1.410       .  A
C744        C749   1.434       .  S
C745        C746   1.410       .  A
C745        C752   1.458       .  S
C746        C747   1.423       .  A
C747        C748   1.425       .  A
C747        C750   1.449       .  S
C748        C751   1.451       .  S
C749        N756   1.152       .  T
C750        N755   1.158       .  T
C751        N753   1.158       .  T
C752        N754   1.158       .  T
C757        C758   1.433       .  A
C757        C762   1.418       .  A
C758        C759   1.421       .  A
C758        C763   1.445       .  S
C759        C760   1.414       .  A
C759        C766   1.454       .  S
C760        C761   1.412       .  A
C761        C762   1.415       .  A
C761        C764   1.451       .  S
C762        C765   1.446       .  S
C763        N770   1.157       .  T
C764        N769   1.157       .  T
C765        N767   1.157       .  T
C766        N768   1.158       .  T
C771        C772   1.416       .  A
C771        C776   1.414       .  A
C772        C773   1.425       .  A
C772        C777   1.452       .  S
C773        C774   1.424       .  A
C773        C780   1.449       .  S
C774        C775   1.425       .  A
C775        C776   1.420       .  A
C775        C778   1.452       .  S
C776        C779   1.445       .  S
C777        N784   1.157       .  T
C778        N783   1.158       .  T
C779        N781   1.157       .  T
C780        N782   1.158       .  T
C785        C786   1.421       .  A
C785        C790   1.426       .  A
C786        C787   1.423       .  A
C786        C791   1.447       .  S
C787        C788   1.414       .  A
C787        C794   1.449       .  S
C788        C789   1.405       .  A
C789        C790   1.410       .  A
C789        C792   1.453       .  S
C790        C793   1.443       .  S
C791        N798   1.157       .  T
C792        N797   1.157       .  T
C793        N795   1.157       .  T
C794        N796   1.157       .  T
C799        C800   1.410       .  A
C799        C804   1.422       .  A
C800        C801   1.412       .  A
C800        C805   1.457       .  S
C801        C802   1.416       .  A
C801        C808   1.436       .  S
C802        C803   1.415       .  A
C803        C804   1.423       .  A
C803        C806   1.451       .  S
C804        C807   1.449       .  S
C805        N812   1.158       .  T
C806        N811   1.157       .  T
C807        N809   1.157       .  T
C808        N810   1.153       .  T
C813        C814   1.431       .  A
C813        C818   1.419       .  A
C814        C815   1.422       .  A
C814        C819   1.446       .  S
C815        C816   1.416       .  A
C815        C822   1.453       .  S
C816        C817   1.415       .  A
C817        C818   1.418       .  A
C817        C820   1.450       .  S
C818        C821   1.446       .  S
C819        N826   1.157       .  T
C820        N825   1.157       .  T
C821        N823   1.158       .  T
C822        N824   1.157       .  T
C827        C828   1.412       .  A
C827        C832   1.418       .  A
C828        C829   1.406       .  A
C828        C833   1.457       .  S
C829        C830   1.410       .  A
C829        C836   1.437       .  S
C830        C831   1.418       .  A
C831        C832   1.423       .  A
C831        C834   1.452       .  S
C832        C835   1.448       .  S
C833        N840   1.158       .  T
C834        N839   1.157       .  T
C835        N837   1.157       .  T
C836        N838   1.153       .  T
C841        C842   1.419       .  A
C841        C846   1.440       .  A
C842        C843   1.417       .  A
C842        C847   1.445       .  S
C843        C844   1.411       .  A
C843        C850   1.451       .  S
C844        C845   1.413       .  A
C845        C846   1.421       .  A
C845        C848   1.456       .  S
C846        C849   1.446       .  S
C847        N854   1.157       .  T
C848        N853   1.158       .  T
C849        N851   1.158       .  T
C850        N852   1.157       .  T
C855        C856   1.418       .  A
C855        C860   1.413       .  A
C856        C857   1.424       .  A
C856        C861   1.448       .  S
C857        C858   1.418       .  A
C857        C864   1.450       .  S
C858        C859   1.421       .  A
C859        C860   1.409       .  A
C859        C862   1.437       .  S
C860        C863   1.460       .  S
C861        N868   1.157       .  T
C862        N867   1.155       .  T
C863        N865   1.158       .  T
C864        N866   1.157       .  T
C869        C870   1.417       .  A
C869        C874   1.431       .  A
C870        C871   1.417       .  A
C870        C875   1.446       .  S
C871        C872   1.412       .  A
C871        C878   1.450       .  S
C872        C873   1.411       .  A
C873        C874   1.417       .  A
C873        C876   1.454       .  S
C874        C877   1.446       .  S
C875        N882   1.157       .  T
C876        N881   1.157       .  T
C877        N879   1.158       .  T
C878        N880   1.157       .  T
C883        C884   1.424       .  A
C883        C888   1.404       .  A
C884        C885   1.433       .  A
C884        C889   1.448       .  S
C885        C886   1.416       .  A
C885        C892   1.449       .  S
C886        C887   1.416       .  A
C887        C888   1.399       .  A
C887        C890   1.443       .  S
C888        C891   1.452       .  S
C889        N896   1.157       .  T
C890        N895   1.157       .  T
C891        N893   1.157       .  T
C892        N894   1.158       .  T
C897        C898   1.419       .  A
C897        C902   1.419       .  A
C898        C899   1.420       .  A
C898        C903   1.451       .  S
C899        C900   1.423       .  A
C899        C906   1.452       .  S
C900        C901   1.420       .  A
C901        C902   1.416       .  A
C901        C904   1.439       .  S
C902        C905   1.453       .  S
C903        N910   1.158       .  T
C904        N909   1.158       .  T
C905        N907   1.158       .  T
C906        N908   1.157       .  T
C911        C912   1.405       .  A
C911        C916   1.408       .  A
C912        C913   1.400       .  A
C912        C917   1.456       .  S
C913        C914   1.418       .  A
C913        C920   1.439       .  S
C914        C915   1.417       .  A
C915        C916   1.401       .  A
C915        C918   1.448       .  S
C916        C919   1.454       .  S
C917        N924   1.158       .  T
C918        N923   1.157       .  T
C919        N921   1.157       .  T
C920        N922   1.154       .  T
C925        C926   1.408       .  A
C925        C930   1.416       .  A
C926        C927   1.407       .  A
C926        C931   1.453       .  S
C927        C928   1.415       .  A
C927        C934   1.441       .  S
C928        C929   1.417       .  A
C929        C930   1.407       .  A
C929        C932   1.448       .  S
C930        C933   1.454       .  S
C931        N938   1.158       .  T
C932        N937   1.157       .  T
C933        N935   1.157       .  T
C934        N936   1.154       .  T
C939        C940   1.418       .  A
C939        C944   1.414       .  A
C940        C941   1.396       .  A
C940        C945   1.443       .  S
C941        C942   1.406       .  A
C941        C948   1.458       .  S
C942        C943   1.412       .  A
C943        C944   1.406       .  A
C943        C946   1.453       .  S
C944        C947   1.445       .  S
C945        N952   1.157       .  T
C946        N951   1.157       .  T
C947        N949   1.156       .  T
C948        N950   1.158       .  T
C953        C954   1.407       .  A
C953        C958   1.401       .  A
C954        C955   1.409       .  A
C954        C959   1.455       .  S
C955        C956   1.422       .  A
C955        C962   1.447       .  S
C956        C957   1.416       .  A
C957        C958   1.399       .  A
C957        C960   1.448       .  S
C958        C961   1.455       .  S
C959        N966   1.157       .  T
C960        N965   1.157       .  T
C961        N963   1.157       .  T
C962        N964   1.158       .  T
C967        C968   1.395       .  A
C967        C972   1.403       .  A
C968        C969   1.392       .  A
C968        C973   1.460       .  S
C969        C970   1.419       .  A
C969        C976   1.434       .  S
C970        C971   1.426       .  A
C971        C972   1.414       .  A
C971        C974   1.442       .  S
C972        C975   1.453       .  S
C973        N980   1.158       .  T
C974        N979   1.157       .  T
C975        N977   1.157       .  T
C976        N978   1.154       .  T
C981        C982   1.426       .  A
C981        C986   1.416       .  A
C982        C983   1.415       .  A
C982        C987   1.443       .  S
C983        C984   1.404       .  A
C983        C990   1.452       .  S
C984        C985   1.395       .  A
C985        C986   1.390       .  A
C985        C988   1.458       .  S
C986        C989   1.437       .  S
C987        N994   1.158       .  T
C988        N993   1.157       .  T
C989        N991   1.154       .  T
C990        N992   1.157       .  T
C995        C996   1.419       .  A
C995       C1000   1.420       .  A
C996        C997   1.400       .  A
C996       C1001   1.439       .  S
C997        C998   1.401       .  A
C997       C1004   1.457       .  S
C998        C999   1.409       .  A
C999       C1000   1.413       .  A
C999       C1002   1.452       .  S
C1000      C1003   1.445       .  S
C1001      N1008   1.155       .  T
C1002      N1007   1.157       .  T
C1003      N1005   1.156       .  T
C1004      N1006   1.158       .  T
C1009      C1010   1.417       .  A
C1009      C1014   1.430       .  A
C1010      C1011   1.388       .  A
C1010      C1015   1.436       .  S
C1011      C1012   1.398       .  A
C1011      C1018   1.461       .  S
C1012      C1013   1.398       .  A
C1013      C1014   1.411       .  A
C1013      C1016   1.454       .  S
C1014      C1017   1.442       .  S
C1015      N1022   1.154       .  T
C1016      N1021   1.157       .  T
C1017      N1019   1.157       .  T
C1018      N1020   1.158       .  T
