geometry optimzed in LAMMPS
_audit_creation_date              2020-11-30 
_audit_creation_method            'lammps2cif' 
_symmetry_space_group_name_H-M    'P1' 
_symmetry_Int_Tables_number       1 
_symmetry_cell_setting            triclinic 
loop_ 
_symmetry_equiv_pos_as_xyz 
  x,y,z 
_cell_length_a                    34.17564162 
_cell_length_b                    35.22983790964887 
_cell_length_c                    33.967395037649226 
_cell_angle_alpha                 88.35138862749926 
_cell_angle_beta                  90.81681738544118 
_cell_angle_gamma                 92.64177467089756 
loop_ 
_atom_site_label 
_atom_site_type_symbol 
_atom_site_fract_x 
_atom_site_fract_y 
_atom_site_fract_z 
_atom_site_charge 
C1          C  0.57903505  0.92241207  0.77941233     0.79600
N2          N  0.54010980  0.92153862  0.77095314    -0.78700
C3          C  0.52390647  0.89481075  0.74702000     0.82100
N4          N  0.54682525  0.86812108  0.73222768    -0.78600
C5          C  0.58572657  0.86812134  0.74162006     0.82200
N6          N  0.60173309  0.89552899  0.76509544    -0.80300
C7          C  0.58412972  0.14871900  0.91164944     0.79600
N8          N  0.60488150  0.18193921  0.91986766    -0.78700
C9          C  0.58623658  0.21534517  0.91735330     0.82100
N10         N  0.54829686  0.21477673  0.90460987    -0.78600
C11         C  0.52789349  0.18230485  0.89564427     0.82200
N12         N  0.54578394  0.14908968  0.89982460    -0.80300
C13         C  0.89994586  0.72006148  0.65690240     0.79600
N14         N  0.86936111  0.71439910  0.68172284    -0.78700
C15         C  0.83234998  0.71738038  0.66756681     0.82100
N16         N  0.82610236  0.72692831  0.62884638    -0.78600
C17         C  0.85661537  0.73390070  0.60413505     0.82200
N18         N  0.89347007  0.72950332  0.61827862    -0.80300
C19         C  0.14833532  0.81238024  0.63737663     0.79600
N20         N  0.16571052  0.83699947  0.66292228    -0.78700
C21         C  0.18617202  0.86867797  0.64965758     0.82100
N22         N  0.18877949  0.87548007  0.60986408    -0.78600
C23         C  0.17175265  0.85034880  0.58402569     0.82200
N24         N  0.15182722  0.81898871  0.59810832    -0.80300
C25         C  0.63236004  0.74985938  0.48316454     0.79600
N26         N  0.63004495  0.75791933  0.52187514    -0.78700
C27         C  0.66226634  0.75875424  0.54532382     0.82100
N28         N  0.69755543  0.75066502  0.52975515    -0.78600
C29         C  0.70064634  0.74098065  0.49124215     0.82200
N30         N  0.66764112  0.74095774  0.46768906    -0.80300
C31         C  0.38600340  0.84913656  0.47602565     0.79600
N32         N  0.39118574  0.84818889  0.51564860    -0.78700
C33         C  0.36253883  0.85832294  0.53951222     0.82100
N34         N  0.32803266  0.86995172  0.52361726    -0.78600
C35         C  0.32241660  0.87253047  0.48385588     0.82200
N36         N  0.35138574  0.86095484  0.45990920    -0.80300
C37         C  0.71722217  0.61601694  0.94268184     0.79600
N38         N  0.70998997  0.63776481  0.90948885    -0.78700
C39         C  0.69356834  0.62123252  0.87674562     0.82100
N40         N  0.68528892  0.58295792  0.87760888    -0.78600
C41         C  0.69371740  0.56113349  0.91020635     0.82200
N42         N  0.70931724  0.57790004  0.94250683    -0.80300
C43         C  0.81889359  0.61821629  0.20559268     0.79600
N44         N  0.82368334  0.58031311  0.20827532    -0.78700
C45         C  0.84381078  0.56468821  0.23871775     0.82100
N46         N  0.85901979  0.58758656  0.26758061    -0.78600
C47         C  0.85343243  0.62590392  0.26602972     0.82200
N48         N  0.83322494  0.64102539  0.23472548    -0.80300
Zr49       Zr  0.67799925  0.32187785  0.94985553     2.17500
O50         O  0.71061049  0.26186735  0.94720997    -0.51900
O51         O  0.67557818  0.31904477  0.02295195    -0.75100
O52         O  0.74670318  0.32774312  0.97120997    -0.81900
O53         O  0.58558530  0.27945315  0.90505094    -0.83600
O54         O  0.76438588  0.39099435  0.97280559    -0.79300
O55         O  0.63939057  0.26063643  0.93848930    -0.90900
O56         O  0.64097646  0.36937932  0.04008534    -0.76900
O57         O  0.67707480  0.38239690  0.97976535    -0.86400
O58         O  0.61081682  0.33769679  0.95194756    -0.86000
O59         O  0.71484944  0.36731061  0.90813321    -0.72800
O60         O  0.65604208  0.32613783  0.88176382    -0.84900
Zr61       Zr  0.62104076  0.44877302  0.87708924     2.26400
Zr62       Zr  0.71321302  0.42783931  0.93943014     2.06300
Zr63       Zr  0.59002093  0.34418737  0.88383389     2.10000
Zr64       Zr  0.61070184  0.39771629  0.98331108     1.78800
O65         O  0.58913374  0.32649605  0.81498534    -0.93700
O66         O  0.62209101  0.44864854  0.02988618    -0.41500
O67         O  0.58838984  0.40196608  0.91741306    -0.78200
O68         O  0.64598645  0.44521311  0.94414146    -0.96900
O69         O  0.68813961  0.43272161  0.87377798    -0.90200
O70         O  0.62352672  0.39061010  0.84266089    -0.93000
C71         C  0.66218830  0.34135049  0.04855574     1.00700
C72         C  0.60581770  0.25380964  0.92126328     1.13700
C73         C  0.77104060  0.35551668  0.97912242     1.04500
O74         O  0.73058448  0.46111237  0.99950091    -0.95200
O75         O  0.70998782  0.49714271  0.92631049    -0.90900
O76         O  0.65159671  0.50885205  0.89609330    -0.84100
C77         C  0.68474040  0.51971046  0.91095516     1.11100
O78         O  0.72243195  0.31674715  0.82206629    -0.97100
Zr79       Zr  0.69063068  0.37365766  0.84204568     1.88900
O80         O  0.64858696  0.46827334  0.81280727    -0.73800
O81         O  0.77496530  0.44352273  0.90660701    -0.53100
O82         O  0.76074882  0.38845040  0.83669818    -0.97700
O83         O  0.67071837  0.35102639  0.77709381    -0.54900
O84         O  0.69519146  0.42741926  0.79709192    -0.74300
C85         C  0.67680546  0.45790574  0.79144385     0.98000
O86         O  0.58572067  0.50417259  0.85409501    -0.63100
O87         O  0.52642315  0.31341420  0.86736589    -0.57900
O88         O  0.54700973  0.44247189  0.87982441    -0.94600
O89         O  0.53235818  0.37954808  0.88857917    -0.93000
O90         O  0.55487159  0.36042043  0.01003528    -0.93400
O91         O  0.55255483  0.43345203  0.99391428    -0.92200
C92         C  0.52218404  0.41392863  0.88565856     1.16900
H93         H  0.59532978  0.31871316  0.96651569     0.32800
H94         H  0.64419599  0.46916478  0.95717869     0.43700
H95         H  0.61197710  0.39351022  0.81670067     0.37200
H96         H  0.74158144  0.35988931  0.90599552     0.33700
H97         H  0.61443505  0.43730283  0.05581702     0.25500
H98         H  0.76770145  0.45856118  0.88276436     0.31400
H99         H  0.76598082  0.38907785  0.80808675     0.37300
H100        H  0.56016650  0.35849340  0.03874342     0.31800
H101        H  0.51708595  0.32696751  0.84331064     0.30700
H102        H  0.59511429  0.29924512  0.81580650     0.32300
H103        H  0.65040829  0.36814284  0.76717500     0.31300
H104        H  0.55989878  0.45993327  0.98546313     0.35300
H105        H  0.56790066  0.49546841  0.83260654     0.28000
H106        H  0.72076090  0.25690791  0.97423175     0.32300
H107        H  0.73775815  0.32434843  0.79837016     0.35100
H108        H  0.53160691  0.28777546  0.85806247     0.27700
H109        H  0.56849391  0.51083821  0.87582231     0.40600
H110        H  0.73125245  0.44093847  0.02037730     0.30700
H111        H  0.65094849  0.45236020  0.03167774     0.38300
H112        H  0.65660542  0.32621105  0.78188345     0.30100
H113        H  0.78878358  0.46210342  0.92385602     0.30200
H114        H  0.73418491  0.26732035  0.93100974     0.30500
Zr115      Zr  0.40743354  0.86528746  0.67348064     2.17500
O116        O  0.46138125  0.84947808  0.63148629    -0.51900
O117        O  0.41942706  0.79995991  0.69523332    -0.75100
O118        O  0.47030823  0.88074455  0.70477807    -0.81900
O119        O  0.33772356  0.83697407  0.60012339    -0.83600
O120        O  0.45910155  0.90919384  0.76265557    -0.79300
O121        O  0.39708282  0.86548339  0.60123192    -0.90900
O122        O  0.37475843  0.78021249  0.74125041    -0.76900
O123        O  0.39094690  0.85995439  0.74166404    -0.86400
O124        O  0.34497223  0.83234199  0.67740946    -0.86000
O125        O  0.40865796  0.92959979  0.69713342    -0.72800
O126        O  0.36399451  0.90633421  0.63838731    -0.84900
Zr127      Zr  0.28221608  0.93209000  0.73130411     2.26400
Zr128      Zr  0.38978284  0.92324444  0.76510141     2.06300
Zr129      Zr  0.30135040  0.87369558  0.64310416     2.10000
Zr130      Zr  0.32806720  0.82862703  0.74547212     1.78800
O131        O  0.27068083  0.91049852  0.59024886    -0.93700
O132        O  0.34561206  0.81486999  0.81406120    -0.41500
O133        O  0.28418616  0.86774546  0.71085031    -0.78200
O134        O  0.32581000  0.89182450  0.76894228    -0.96900
O135        O  0.34610812  0.96211212  0.72942432    -0.90200
O136        O  0.29963729  0.93847275  0.66337157    -0.93000
C137        C  0.40560217  0.77599975  0.72133495     1.00700
C138        C  0.36670787  0.85253352  0.58227777     1.13700
C139        C  0.48173841  0.89476972  0.73764536     1.04500
O140        O  0.40491993  0.89730729  0.83042139    -0.95200
O141        O  0.35412958  0.95994031  0.81229437    -0.90900
O142        O  0.28865779  0.95117774  0.79933066    -0.84100
C143        C  0.31777373  0.96353464  0.82044063     1.11100
O144        O  0.40396939  0.98134344  0.60485618    -0.97100
Zr145      Zr  0.36332877  0.96940476  0.66271646     1.88900
O146        O  0.28112134  0.00132144  0.72255594    -0.73800
O147        O  0.42811642  0.98224062  0.77539438    -0.53100
O148        O  0.41816899  0.01567611  0.66866417    -0.97700
O149        O  0.32290269  0.00029934  0.61236650    -0.54900
O150        O  0.34139275  0.02146069  0.70133619    -0.74300
C151        C  0.30830960  0.02733554  0.71677849     0.98000
O152        O  0.22122662  0.93142338  0.76770767    -0.63100
O153        O  0.25928708  0.83206371  0.60271862    -0.57900
O154        O  0.22339433  0.91617113  0.68872844    -0.94600
O155        O  0.24486005  0.85918545  0.68141033    -0.93000
O156        O  0.28628931  0.77724823  0.71911516    -0.93400
O157        O  0.27308551  0.80775597  0.78685477    -0.92200
C158        C  0.21829929  0.88248148  0.67543362     1.16900
H159        H  0.34489949  0.80734014  0.66653056     0.32800
H160        H  0.31799472  0.88928684  0.79616251     0.43700
H161        H  0.28031839  0.95268104  0.64895670     0.37200
H162        H  0.43435740  0.94168189  0.69469870     0.33700
H163        H  0.34609709  0.78680775  0.81631532     0.25500
H164        H  0.44364879  0.97735056  0.79969279     0.31400
H165        H  0.41861185  0.02283212  0.69664101     0.37300
H166        H  0.29661143  0.75372116  0.73109216     0.31800
H167        H  0.26686332  0.83727563  0.57498833     0.30700
H168        H  0.29269617  0.92492777  0.57727098     0.32300
H169        H  0.34118450  0.01598766  0.59562119     0.31300
H170        H  0.26046585  0.83150195  0.79332203     0.35300
H171        H  0.20425011  0.94894849  0.75280773     0.28000
H172        H  0.47707719  0.83156008  0.64736557     0.32300
H173        H  0.42403635  0.96195934  0.60696162     0.35100
H174        H  0.26755601  0.80595777  0.60885688     0.27700
H175        H  0.20881175  0.90577510  0.76412608     0.40600
H176        H  0.41528386  0.91943945  0.84528732     0.30700
H177        H  0.37343834  0.82369107  0.81648943     0.38300
H178        H  0.30830040  0.01908880  0.62669031     0.30100
H179        H  0.44762693  0.98380762  0.75408274     0.30200
H180        H  0.47827676  0.87300940  0.62901798     0.30500
C181        C  0.10944706  0.65756349  0.39325241     0.79600
N182        N  0.06938353  0.65491221  0.39509976    -0.78700
C183        C  0.04971787  0.68428628  0.40863249     0.82100
N184        N  0.07069585  0.71600221  0.41989709    -0.78600
C185        C  0.11036649  0.71988910  0.41760247     0.82200
N186        N  0.12985497  0.69052222  0.40311298    -0.80300
C187        C  0.09873680  0.41925008  0.29060414     0.79600
N188        N  0.06002639  0.42581861  0.29300895    -0.78700
C189        C  0.03281308  0.39840118  0.28394536     0.82100
N190        N  0.04436651  0.36420992  0.27181089    -0.78600
C191        C  0.08290711  0.35745014  0.26809610     0.82200
N192        N  0.11039028  0.38501737  0.27816219    -0.80300
Zr193      Zr  0.90754766  0.65085862  0.39425331     2.17500
O194        O  0.94896184  0.59631216  0.39190471    -0.51900
O195        O  0.89118536  0.63831335  0.32477495    -0.75100
O196        O  0.87089697  0.59023337  0.39807113    -0.81900
O197        O  0.99528619  0.71862853  0.41773803    -0.83600
O198        O  0.80967089  0.59986362  0.42072289    -0.79300
O199        O  0.98173489  0.65922988  0.39573970    -0.90900
O200        O  0.84594621  0.68043633  0.30498229    -0.76900
O201        O  0.84215200  0.66920348  0.37889185    -0.86400
O202        O  0.91232729  0.71416611  0.36753787    -0.86000
O203        O  0.86883692  0.64506629  0.45388846    -0.72800
O204        O  0.93488411  0.68805348  0.44660561    -0.84900
Zr205      Zr  0.83876785  0.76714295  0.46685923     2.26400
Zr206      Zr  0.80386674  0.66640380  0.43749725     2.06300
Zr207      Zr  0.93691890  0.75192103  0.42096268     2.10000
Zr208      Zr  0.84700292  0.73186693  0.35259545     1.78800
O209        O  0.99797081  0.78247462  0.44399842    -0.93700
O210        O  0.78016374  0.72990779  0.32632819    -0.41500
O211        O  0.87262152  0.77114007  0.40476219    -0.78200
O212        O  0.80953007  0.73100230  0.41282699    -0.96900
O213        O  0.83274127  0.70214053  0.48946284    -0.90200
O214        O  0.90348263  0.74771676  0.48262766    -0.93000
C215        C  0.86479869  0.65003155  0.30036647     1.00700
C216        C  0.00607254  0.68644985  0.40710357     1.13700
C217        C  0.83616390  0.57868095  0.40778442     1.04500
O218        O  0.75135842  0.65162600  0.39049075    -0.95200
O219        O  0.74594205  0.69931056  0.46144039    -0.90900
O220        O  0.76781190  0.75858612  0.47911691    -0.84100
C221        C  0.74041323  0.73237320  0.47570247     1.11100
O222        O  0.91557408  0.61736782  0.51632533    -0.97100
Zr223      Zr  0.89720598  0.68284993  0.50482083     1.88900
O224        O  0.85275007  0.76490686  0.53923616    -0.73800
O225        O  0.77506307  0.62918680  0.49221657    -0.53100
O226        O  0.90687858  0.65788132  0.57180646    -0.97700
O227        O  0.95846151  0.71213245  0.52952078    -0.54900
O228        O  0.84564812  0.70225400  0.54566184    -0.74300
C229        C  0.85000446  0.73444753  0.56113435     0.98000
O230        O  0.80476055  0.82339438  0.48473174    -0.63100
O231        O  0.95088302  0.78537801  0.35857664    -0.57900
O232        O  0.87315119  0.82731734  0.44093886    -0.94600
O233        O  0.93537551  0.81255470  0.45038208    -0.93000
O234        O  0.88922093  0.76123634  0.30195695    -0.93400
O235        O  0.82777747  0.79261076  0.32418647    -0.92200
C236        C  0.91030488  0.83616790  0.43936688     1.16900
H237        H  0.92915968  0.71546749  0.34492249     0.32800
H238        H  0.78395412  0.74009675  0.40632253     0.43700
H239        H  0.91625035  0.76372114  0.50206914     0.37200
H240        H  0.86697828  0.61918960  0.46401840     0.33700
H241        H  0.78287626  0.73555288  0.29774304     0.25500
H242        H  0.75337821  0.61371538  0.48018732     0.31400
H243        H  0.88091008  0.64737463  0.58040401     0.37300
H244        H  0.87809967  0.75186288  0.27677744     0.31800
H245        H  0.96186000  0.81071638  0.36588387     0.30700
H246        H  0.00069443  0.77365041  0.47182154     0.32300
H247        H  0.97544899  0.69056760  0.53524328     0.31300
H248        H  0.81700326  0.80602384  0.34654759     0.35300
H249        H  0.82480635  0.84009117  0.49776891     0.28000
H250        H  0.93834463  0.58057833  0.37017153     0.32300
H251        H  0.94262616  0.61696483  0.50632333     0.35100
H252        H  0.97318993  0.77238772  0.34761726     0.27700
H253        H  0.79871134  0.83670202  0.45945090     0.40600
H254        H  0.73823707  0.62795264  0.40114235     0.30700
H255        H  0.77151720  0.70270762  0.32796550     0.38300
H256        H  0.95215664  0.72167770  0.55569761     0.30100
H257        H  0.79493534  0.61065988  0.49985089     0.30200
H258        H  0.94333414  0.58103322  0.41627248     0.30500
C259        C  0.87475342  0.32816251  0.99090727     0.79600
N260        N  0.83932296  0.33558440  0.97402882    -0.78700
C261        C  0.80921473  0.34589360  0.99696334     0.82100
N262        N  0.81470413  0.34812766  0.03665966    -0.78600
C263        C  0.84991518  0.34028269  0.05347247     0.82200
N264        N  0.87981869  0.33104859  0.03039008    -0.80300
C265        C  0.13745533  0.26934470  0.98864435     0.79600
N266        N  0.17042609  0.26174052  0.96866086    -0.78700
C267        C  0.20184509  0.24776194  0.98858536     0.82100
N268        N  0.19989372  0.24115939  0.02808637    -0.78600
C269        C  0.16733511  0.24921565  0.04807095     0.82200
N270        N  0.13621229  0.26321286  0.02828005    -0.80300
Zr271      Zr  0.90496669  0.44794295  0.26877733     2.17500
O272        O  0.95341618  0.49885466  0.28334763    -0.51900
O273        O  0.88167420  0.46262202  0.33409327    -0.75100
O274        O  0.88016105  0.51066523  0.25482592    -0.81900
O275        O  0.97009158  0.37579279  0.30001640    -0.83600
O276        O  0.82125281  0.50188336  0.22335924    -0.79300
O277        O  0.97547720  0.43523065  0.27614252    -0.90900
O278        O  0.82957506  0.42208523  0.34738551    -0.76900
O279        O  0.83645581  0.43219703  0.27328039    -0.86400
O280        O  0.89778287  0.38612720  0.29946124    -0.86000
O281        O  0.87842439  0.45097761  0.20221913    -0.72800
O282        O  0.93577207  0.40687536  0.22445044    -0.84900
Zr283      Zr  0.83455296  0.33023454  0.19336787     2.26400
Zr284      Zr  0.80946907  0.43416471  0.20823635     2.06300
Zr285      Zr  0.92738115  0.34480187  0.25416040     2.10000
Zr286      Zr  0.82931493  0.37052264  0.30258191     1.78800
O287        O  0.97995793  0.32660977  0.21170187    -0.93700
O288        O  0.76058233  0.37955896  0.31625732    -0.41500
O289        O  0.85921855  0.32890665  0.25960962    -0.78200
O290        O  0.80225356  0.37118678  0.23731872    -0.96900
O291        O  0.84046019  0.39297328  0.16491716    -0.90200
O292        O  0.90299371  0.34547129  0.18745677    -0.93000
C293        C  0.85118017  0.45191442  0.35393944     1.00700
C294        C  0.99092056  0.40429025  0.28822323     1.13700
C295        C  0.84853450  0.52307363  0.23952195     1.04500
O296        O  0.75296198  0.45431081  0.24377408    -0.95200
O297        O  0.75316431  0.39930011  0.17678240    -0.90900
O298        O  0.76886348  0.33777118  0.16817353    -0.84100
C299        C  0.74546967  0.36511034  0.16495367     1.11100
O300        O  0.96071164  0.45662327  0.14854089    -0.97100
Zr301      Zr  0.90843939  0.40824046  0.15923700     1.88900
O302        O  0.83997278  0.32730868  0.12175596    -0.73800
O303        O  0.79420170  0.46971455  0.14789162    -0.53100
O304        O  0.89259472  0.45655189  0.10948357    -0.97700
O305        O  0.96781785  0.38237401  0.13386575    -0.54900
O306        O  0.88235773  0.37560185  0.10207720    -0.74300
C307        C  0.85788470  0.34787860  0.09516042     0.98000
O308        O  0.78965444  0.27457080  0.19820749    -0.63100
O309        O  0.96606127  0.29798130  0.28964897    -0.57900
O310        O  0.87009379  0.27113057  0.20662893    -0.94600
O311        O  0.89301513  0.28566735  0.26634682    -0.93000
O312        O  0.85479148  0.34066777  0.36263301    -0.93400
O313        O  0.79537738  0.31040063  0.32080295    -0.92200
C314        C  0.88860621  0.26244973  0.23871078     1.16900
H315        H  0.90854818  0.38561024  0.32592972     0.32800
H316        H  0.77491435  0.36333407  0.23955070     0.43700
H317        H  0.91490263  0.32706479  0.17147464     0.37200
H318        H  0.88240021  0.47601052  0.19059924     0.33700
H319        H  0.75785692  0.37350890  0.34476931     0.25500
H320        H  0.77425281  0.48751477  0.15561644     0.31400
H321        H  0.90645470  0.44940513  0.08557675     0.37300
H322        H  0.84256816  0.35387304  0.38432657     0.31800
H323        H  0.99386918  0.30661815  0.28700524     0.30700
H324        H  0.97373606  0.29956690  0.20603466     0.32300
H325        H  0.96931062  0.39221238  0.10629601     0.31300
H326        H  0.78581688  0.30000974  0.29546294     0.35300
H327        H  0.79940601  0.25634206  0.17940914     0.28000
H328        H  0.94088002  0.51506450  0.30241691     0.32300
H329        H  0.96420357  0.46895314  0.17426514     0.35100
H330        H  0.96018448  0.30095688  0.31781726     0.27700
H331        H  0.79468847  0.26303821  0.22461790     0.40600
H332        H  0.73459537  0.46305884  0.22298689     0.30700
H333        H  0.75776645  0.40737435  0.31390741     0.38300
H334        H  0.96209632  0.35477222  0.13133928     0.30100
H335        H  0.81797547  0.48610734  0.14268222     0.30200
H336        H  0.95572849  0.51467041  0.25883981     0.30500
C337        C  0.37450428  0.27711236  0.14599922     0.79600
N338        N  0.34442444  0.26007442  0.16671820    -0.78700
C339        C  0.31408800  0.24173462  0.14757496     0.82100
N340        N  0.31456536  0.23996642  0.10748762    -0.78600
C341        C  0.34414495  0.25777542  0.08650668     0.82200
N342        N  0.37409950  0.27591350  0.10602392    -0.80300
C343        C  0.63887780  0.34428597  0.15206446     0.79600
N344        N  0.67394878  0.35491292  0.16871281    -0.78700
C345        C  0.70705448  0.35558497  0.14667024     0.82100
N346        N  0.70461706  0.34666398  0.10770966    -0.78600
C347        C  0.66932790  0.33623893  0.09109735     0.82200
N348        N  0.63701605  0.33560106  0.11358825    -0.80300
C349        C  0.26678560  0.99074402  0.90981961     0.79600
N350        N  0.28017824  0.96932563  0.88069055    -0.78700
C351        C  0.30804613  0.98427603  0.85568638     0.82100
N352        N  0.32245724  0.02064470  0.86020033    -0.78600
C353        C  0.30842373  0.04217479  0.88905874     0.82200
N354        N  0.28044916  0.02715035  0.91333256    -0.80300
C355        C  0.18035032  0.98524725  0.16690256     0.79600
N356        N  0.18691903  0.02346434  0.16789697    -0.78700
C357        C  0.18773756  0.04135754  0.20247996     0.82100
N358        N  0.17998578  0.02092869  0.23650703    -0.78600
C359        C  0.17241298  0.98261984  0.23599775     0.82200
N360        N  0.17388603  0.96460866  0.20100650    -0.80300
Zr361      Zr  0.33276006  0.27404773  0.94503492     2.17500
O362        O  0.30051379  0.33447072  0.94343201    -0.51900
O363        O  0.34258138  0.27550158  0.01757902    -0.75100
O364        O  0.26451672  0.26675484  0.96556318    -0.81900
O365        O  0.42259408  0.32049773  0.89814864    -0.83600
O366        O  0.24206159  0.20555301  0.95671553    -0.79300
O367        O  0.36905452  0.33660174  0.93150946    -0.90900
O368        O  0.36074260  0.21674380  0.03777117    -0.76900
O369        O  0.32682579  0.21031514  0.97172704    -0.86400
O370        O  0.39771478  0.25349827  0.95521079    -0.86000
O371        O  0.29683247  0.23593127  0.89675962    -0.72800
O372        O  0.36118286  0.27490195  0.88052860    -0.84900
Zr373      Zr  0.38862470  0.15327707  0.87115125     2.26400
Zr374      Zr  0.29309241  0.17180730  0.92415226     2.06300
Zr375      Zr  0.42559091  0.25372577  0.89078414     2.10000
Zr376      Zr  0.39139440  0.19012240  0.98217543     1.78800
O377        O  0.45076656  0.28438331  0.83057317    -0.93700
O378        O  0.37454638  0.13596092  0.02597725    -0.41500
O379        O  0.42107381  0.19157444  0.91942207    -0.78200
O380        O  0.35799724  0.14969197  0.93551261    -0.96900
O381        O  0.32358804  0.17384291  0.86178226    -0.90200
O382        O  0.39285133  0.21572171  0.84206313    -0.93000
C383        C  0.34887183  0.24974645  0.04452550     1.00700
C384        C  0.40150600  0.34509198  0.91329806     1.13700
C385        C  0.23816192  0.23962918  0.96833279     1.04500
O386        O  0.26907641  0.13105304  0.97851096    -0.95200
O387        O  0.29572038  0.10518173  0.90483765    -0.90900
O388        O  0.35678360  0.09182448  0.88453210    -0.84100
C389        C  0.32116748  0.08225015  0.89286733     1.11100
O390        O  0.31084369  0.29982546  0.81190149    -0.97100
Zr391      Zr  0.32743785  0.23578545  0.83332502     1.88900
O392        O  0.36055426  0.13772445  0.80585206    -0.73800
O393        O  0.23339867  0.15997414  0.88550275    -0.53100
O394        O  0.25806623  0.23615323  0.81539983    -0.97700
O395        O  0.35933916  0.25855297  0.77269481    -0.54900
O396        O  0.31682857  0.18245931  0.78994950    -0.74300
C397        C  0.33214099  0.15040284  0.78468045     0.98000
O398        O  0.42721479  0.10885432  0.83591850    -0.63100
O399        O  0.48377877  0.27115034  0.92984929    -0.57900
O400        O  0.46081390  0.15770474  0.88632434    -0.94600
O401        O  0.47834767  0.21795429  0.86811039    -0.93000
O402        O  0.44712481  0.22047507  0.01625407    -0.93400
O403        O  0.44470032  0.14781711  0.99560245    -0.92200
C404        C  0.48697867  0.18515620  0.88136118     1.16900
H405        H  0.41229631  0.27042694  0.97243295     0.32800
H406        H  0.35730145  0.12431368  0.94717336     0.43700
H407        H  0.40726285  0.21600915  0.81781336     0.37200
H408        H  0.27081307  0.24512553  0.89299307     0.33700
H409        H  0.38704177  0.14242798  0.05155176     0.25500
H410        H  0.24257502  0.15223605  0.85953426     0.31400
H411        H  0.25017334  0.20939097  0.81006215     0.37300
H412        H  0.44327666  0.21335502  0.04439281     0.31800
H413        H  0.47701667  0.29363013  0.94475189     0.30700
H414        H  0.43177112  0.30385212  0.82330115     0.32300
H415        H  0.36886794  0.23564775  0.76036285     0.31300
H416        H  0.44489438  0.13138089  0.97244682     0.35300
H417        H  0.44672876  0.12468921  0.82073886     0.28000
H418        H  0.28821886  0.33635687  0.96948166     0.32300
H419        H  0.29569321  0.29689221  0.78702014     0.35100
H420        H  0.48554033  0.25048498  0.95006541     0.27700
H421        H  0.44253518  0.09490249  0.85612302     0.40600
H422        H  0.29134419  0.11522930  0.98598378     0.30700
H423        H  0.34613948  0.13755609  0.03057578     0.38300
H424        H  0.38335217  0.27291908  0.78127240     0.30100
H425        H  0.22121686  0.13640699  0.89744230     0.30200
H426        H  0.27837178  0.33115956  0.92452358     0.30500
C427        C  0.15529936  0.12470164  0.45814986     0.79600
N428        N  0.14712727  0.14848697  0.42703922    -0.78700
C429        C  0.14419691  0.13470857  0.39011839     0.82100
N430        N  0.15130287  0.09734552  0.38462152    -0.78600
C431        C  0.16081480  0.07361983  0.41535068     0.82200
N432        N  0.16229213  0.08749924  0.45218352    -0.80300
C433        C  0.26125919  0.11830707  0.70785707     0.79600
N434        N  0.26951885  0.08149132  0.70461254    -0.78700
C435        C  0.29966098  0.06669893  0.72480639     0.82100
N436        N  0.32182897  0.08901645  0.74976987    -0.78600
C437        C  0.31315222  0.12629833  0.75391754     0.82200
N438        N  0.28308814  0.14078124  0.73228436    -0.80300
Zr439      Zr  0.10559487  0.22390518  0.28542546     2.17500
O440        O  0.09560548  0.24986637  0.35008718    -0.51900
O441        O  0.03320981  0.21473320  0.27808520    -0.75100
O442        O  0.09188951  0.29203203  0.28159853    -0.81900
O443        O  0.17284631  0.16003641  0.33327980    -0.83600
O444        O  0.10605724  0.31606248  0.22011663    -0.79300
O445        O  0.11344290  0.18054638  0.34504604    -0.90900
O446        O  0.01946318  0.17220956  0.23021333    -0.76900
O447        O  0.08280985  0.22627260  0.21854873    -0.86400
O448        O  0.10064982  0.15992602  0.26401501    -0.86000
O449        O  0.15558984  0.26126599  0.24922312    -0.72800
O450        O  0.17169800  0.20242108  0.28889204    -0.84900
Zr451      Zr  0.19018285  0.17526232  0.16430303     2.26400
Zr452      Zr  0.13115483  0.26387207  0.18235358     2.06300
Zr453      Zr  0.16639464  0.13854369  0.26783667     2.10000
Zr454      Zr  0.07888042  0.16234645  0.19704849     1.78800
O455        O  0.20741117  0.10083052  0.31167357    -0.93700
O456        O  0.03274044  0.18541217  0.14745000    -0.41500
O457        O  0.14260010  0.13796329  0.20128785    -0.78200
O458        O  0.12522231  0.19980188  0.15896800    -0.96900
O459        O  0.19527795  0.23940440  0.18534206    -0.90200
O460        O  0.21564388  0.17340076  0.22993097    -0.93000
C461        C  0.00922009  0.19436237  0.25672487     1.00700
C462        C  0.14314090  0.16064463  0.35502355     1.13700
C463        C  0.09428943  0.31950075  0.25569836     1.04500
O464        O  0.07305202  0.28251761  0.14558292    -0.95200
O465        O  0.14847865  0.26313904  0.11266998    -0.90900
O466        O  0.17827296  0.20782344  0.10169817    -0.84100
C467        C  0.16472772  0.23973599  0.09022935     1.11100
O468        O  0.23520411  0.26468075  0.31461365    -0.97100
Zr469      Zr  0.22018270  0.23742178  0.25067964     1.88900
O470        O  0.25747768  0.20025839  0.15464833    -0.73800
O471        O  0.16830181  0.32223700  0.16391197    -0.53100
O472        O  0.23518658  0.30552377  0.24288691    -0.97700
O473        O  0.27549320  0.21115507  0.28663848    -0.54900
O474        O  0.27190451  0.24306189  0.20200989    -0.74300
C475        C  0.27933665  0.22687179  0.16976247     0.98000
O476        O  0.21482097  0.14333350  0.10754826    -0.63100
O477        O  0.11930768  0.08593681  0.28241068    -0.57900
O478        O  0.18724919  0.10456587  0.17339809    -0.94600
O479        O  0.20679375  0.09615337  0.23602247    -0.93000
O480        O  0.05548282  0.09808746  0.21615204    -0.93400
O481        O  0.06820135  0.12231508  0.14025840    -0.92200
C482        C  0.19558035  0.08278452  0.20335909     1.16900
H483        H  0.08248447  0.14494614  0.28046020     0.32800
H484        H  0.11476050  0.19920488  0.13249811     0.43700
H485        H  0.24071603  0.16183890  0.23128422     0.37200
H486        H  0.15940201  0.28630462  0.25974022     0.33700
H487        H  0.00689528  0.17367120  0.15480638     0.25500
H488        H  0.14846003  0.33960844  0.15340389     0.31400
H489        H  0.26364188  0.30795659  0.23771316     0.37300
H490        H  0.03942425  0.10087111  0.23983573     0.31800
H491        H  0.13346706  0.06254891  0.27836027     0.30700
H492        H  0.19141214  0.07756223  0.31871368     0.32300
H493        H  0.29021017  0.19750445  0.26699800     0.31300
H494        H  0.09478954  0.11865784  0.13022462     0.35300
H495        H  0.23637003  0.12790575  0.11793117     0.28000
H496        H  0.06927965  0.26048874  0.34871939     0.32300
H497        H  0.26061256  0.27907425  0.31156288     0.35100
H498        H  0.11539785  0.08636207  0.31120546     0.27700
H499        H  0.19377138  0.12464485  0.09982842     0.40600
H500        H  0.05214348  0.28271558  0.16544979     0.30700
H501        H  0.03070335  0.21270647  0.15281746     0.38300
H502        H  0.26366179  0.19087486  0.30407776     0.30100
H503        H  0.17719357  0.33330267  0.18915008     0.30200
H504        H  0.11415278  0.27222294  0.35180616     0.30500
C505        C  0.91946765  0.93034178  0.38594260     0.79600
N506        N  0.95847819  0.93263001  0.37764834    -0.78700
C507        C  0.98186544  0.90489158  0.39064082     0.82100
N508        N  0.96558403  0.87485515  0.41189169    -0.78600
C509        C  0.92660025  0.87214011  0.42044126     0.82200
N510        N  0.90339790  0.90010490  0.40702332    -0.80300
C511        C  0.90545593  0.16227211  0.26354690     0.79600
N512        N  0.88677123  0.19412302  0.25277699    -0.78700
C513        C  0.90807418  0.22675135  0.24469151     0.82100
N514        N  0.94787168  0.22777219  0.24925051    -0.78600
C515        C  0.96654356  0.19600342  0.26064878     0.82200
N516        N  0.94511066  0.16313241  0.26676205    -0.80300
Zr517      Zr  0.19083895  0.83673257  0.44373085     2.17500
O518        O  0.23032785  0.78068852  0.44630642    -0.51900
O519        O  0.17861291  0.83381301  0.51621562    -0.75100
O520        O  0.25899187  0.85050400  0.46426365    -0.81900
O521        O  0.10394019  0.78221460  0.39918838    -0.83600
O522        O  0.27245671  0.91464817  0.45945005    -0.79300
O523        O  0.15979408  0.77122045  0.43344511    -0.90900
O524        O  0.15552735  0.89059456  0.53137875    -0.76900
O525        O  0.18350017  0.89736757  0.47189180    -0.86400
O526        O  0.12198590  0.84397769  0.44438177    -0.86000
O527        O  0.22208719  0.88574000  0.40101782    -0.72800
O528        O  0.17020580  0.83730243  0.37514535    -0.84900
Zr529      Zr  0.11866278  0.95308454  0.36624192     2.26400
Zr530      Zr  0.21359539  0.94635680  0.43064870     2.06300
Zr531      Zr  0.10175085  0.84624008  0.37592765     2.10000
Zr532      Zr  0.11512654  0.90386733  0.47462908     1.78800
O533        O  0.10591010  0.82736396  0.30773511    -0.93700
O534        O  0.11168767  0.95878447  0.51633527    -0.41500
O535        O  0.09308875  0.90364225  0.40814134    -0.78200
O536        O  0.14367199  0.95348219  0.43369927    -0.96900
O537        O  0.18834738  0.94718904  0.36431442    -0.90200
O538        O  0.12948674  0.89542080  0.33382370    -0.93000
C539        C  0.16966350  0.85889336  0.54136652     1.00700
C540        C  0.12686315  0.75994050  0.41706135     1.13700
C541        C  0.28222246  0.88003925  0.46796356     1.04500
O542        O  0.23175509  0.97754902  0.49175857    -0.95200
O543        O  0.19332683  0.01415455  0.42586454    -0.90900
O544        O  0.13759598  0.01647881  0.38805294    -0.84100
C545        C  0.16491177  0.03228928  0.40904688     1.11100
O546        O  0.24854506  0.84261778  0.32222386    -0.97100
Zr547      Zr  0.19880074  0.88819826  0.33438834     1.88900
O548        O  0.14146267  0.97123351  0.29870858    -0.73800
O549        O  0.26863552  0.97516177  0.39414757    -0.53100
O550        O  0.26203327  0.92189995  0.32489138    -0.97700
O551        O  0.18748212  0.84915677  0.27687655    -0.54900
O552        O  0.18790181  0.93183450  0.27929375    -0.74300
C553        C  0.16649448  0.96041245  0.27360610     0.98000
O554        O  0.07622497  0.00082798  0.33778165    -0.63100
O555        O  0.04334091  0.80930088  0.35522789    -0.57900
O556        O  0.04558625  0.93561900  0.37292667    -0.94600
O557        O  0.03831303  0.87177596  0.38297518    -0.93000
O558        O  0.07324336  0.85818277  0.51164166    -0.93400
O559        O  0.04934772  0.92686941  0.47966613    -0.92200
C560        C  0.02412780  0.90466612  0.38038092     1.16900
H561        H  0.10863145  0.82364797  0.45930300     0.32800
H562        H  0.13685319  0.97587591  0.44705453     0.43700
H563        H  0.11814027  0.89599282  0.30763891     0.37200
H564        H  0.24953869  0.88130519  0.39847016     0.33700
H565        H  0.10433932  0.94795466  0.54257267     0.25500
H566        H  0.25701060  0.99470942  0.37665491     0.31400
H567        H  0.25577827  0.94813487  0.31664367     0.37300
H568        H  0.07159703  0.86901935  0.53811417     0.31800
H569        H  0.05242383  0.78663059  0.34212356     0.30700
H570        H  0.11467726  0.80095783  0.30952890     0.32300
H571        H  0.16352363  0.85857769  0.26394862     0.31300
H572        H  0.04834217  0.94794329  0.45979849     0.35300
H573        H  0.06040221  0.98766507  0.31720489     0.28000
H574        H  0.24149708  0.77924702  0.47334337     0.32300
H575        H  0.26352797  0.85314691  0.29934950     0.35100
H576        H  0.03194754  0.79889762  0.38007620     0.27700
H577        H  0.05738904  0.00630096  0.35853264     0.40600
H578        H  0.22423676  0.95869571  0.51281037     0.30700
H579        H  0.13922708  0.96825509  0.51974979     0.38300
H580        H  0.17971890  0.82351030  0.28751099     0.30100
H581        H  0.28404192  0.98983996  0.41391499     0.30200
H582        H  0.25294112  0.78690670  0.42899346     0.30500
C583        C  0.42162765  0.45046092  0.89604231     0.79600
N584        N  0.40058901  0.41708634  0.90484230    -0.78700
C585        C  0.41999077  0.38417970  0.90910399     0.82100
N586        N  0.45906390  0.38541742  0.90294072    -0.78600
C587        C  0.47993643  0.41767108  0.89303977     0.82200
N588        N  0.46116887  0.45054301  0.88990830    -0.80300
C589        C  0.43547237  0.68907224  0.77410656     0.79600
N590        N  0.47425753  0.69041686  0.76651219    -0.78700
C591        C  0.49009175  0.71697573  0.74110337     0.82100
N592        N  0.46705668  0.74330348  0.72397228    -0.78600
C593        C  0.42820120  0.74281244  0.73216196     0.82200
N594        N  0.41244869  0.71554945  0.75729837    -0.80300
C595        C  0.79181199  0.48476926  0.43438107     0.79600
N596        N  0.79967620  0.52268783  0.43214569    -0.78700
C597        C  0.82673004  0.53778515  0.40688216     0.82100
N598        N  0.84582751  0.51461843  0.38293379    -0.78600
C599        C  0.83734409  0.47641625  0.38448467     0.82200
N600        N  0.81052241  0.46162578  0.41055866    -0.80300
C601        C  0.71034389  0.48541063  0.69185543     0.79600
N602        N  0.71362276  0.52366572  0.69376440    -0.78700
C603        C  0.70643099  0.54132734  0.72756249     0.82100
N604        N  0.69301307  0.52041483  0.75937267    -0.78600
C605        C  0.68956607  0.48173523  0.75753670     0.82200
N606        N  0.69875605  0.46438695  0.72386582    -0.80300
Zr607      Zr  0.61136382  0.75279528  0.67891972     2.17500
O608        O  0.56134801  0.77328788  0.63201086    -0.51900
O609        O  0.59842001  0.81631879  0.70121454    -0.75100
O610        O  0.54619393  0.73595251  0.70439178    -0.81900
O611        O  0.68953567  0.77732611  0.60606021    -0.83600
O612        O  0.55313180  0.70281441  0.76262634    -0.79300
O613        O  0.62721988  0.75496551  0.60695940    -0.90900
O614        O  0.63813934  0.82838369  0.75404234    -0.76900
O615        O  0.62483283  0.75402511  0.74843480    -0.86400
O616        O  0.67550544  0.78168100  0.68650272    -0.86000
O617        O  0.60543824  0.68806247  0.70505166    -0.72800
O618        O  0.65368250  0.71145562  0.64711987    -0.84900
Zr619      Zr  0.72713546  0.67520363  0.74965234     2.26400
Zr620      Zr  0.62148773  0.68996004  0.77464794     2.06300
Zr621      Zr  0.71814814  0.73874791  0.65668799     2.10000
Zr622      Zr  0.68865711  0.78228226  0.75574032     1.78800
O623        O  0.74158452  0.70014920  0.60432673    -0.93700
O624        O  0.67948179  0.79461776  0.82512198    -0.41500
O625        O  0.73102893  0.74037557  0.72574383    -0.78200
O626        O  0.68612983  0.71814682  0.78260337    -0.96900
O627        O  0.66221010  0.64887335  0.74144681    -0.90200
O628        O  0.71356554  0.67357323  0.67988788    -0.93000
C629        C  0.60919486  0.83591954  0.73113681     1.00700
C630        C  0.65882213  0.76536487  0.58811784     1.13700
C631        C  0.53249447  0.71895879  0.73560742     1.04500
O632        O  0.60190224  0.72153109  0.83349186    -0.95200
O633        O  0.65259564  0.65412265  0.83002995    -0.90900
O634        O  0.71731713  0.64950399  0.81684541    -0.84100
C635        C  0.68741939  0.64352477  0.83915685     1.11100
O636        O  0.60286666  0.64163437  0.61689056    -0.97100
Zr637      Zr  0.64815837  0.64803403  0.67272459     1.88900
O638        O  0.72442599  0.60569543  0.74313469    -0.73800
O639        O  0.58194494  0.63245527  0.79123655    -0.53100
O640        O  0.59137505  0.60480517  0.68353169    -0.97700
O641        O  0.68070844  0.62059831  0.61748390    -0.54900
O642        O  0.67454400  0.59144604  0.70012198    -0.74300
C643        C  0.70164355  0.58217213  0.72424035     0.98000
O644        O  0.78710052  0.68121487  0.78911638    -0.63100
O645        O  0.76688890  0.78208249  0.62534996    -0.57900
O646        O  0.78877575  0.68348411  0.71279060    -0.94600
O647        O  0.77753140  0.74277137  0.69398490    -0.93000
O648        O  0.72338889  0.83916185  0.72931681    -0.93400
O649        O  0.74995557  0.79997958  0.78931433    -0.92200
C650        C  0.79895204  0.71443366  0.69394921     1.16900
H651        H  0.67741698  0.80689950  0.67450868     0.32800
H652        H  0.69314758  0.71910560  0.81021237     0.43700
H653        H  0.73176315  0.65801626  0.66695118     0.37200
H654        H  0.57958076  0.67656091  0.70044844     0.33700
H655        H  0.67949839  0.82265991  0.82642666     0.25500
H656        H  0.56250823  0.62972088  0.76949003     0.31400
H657        H  0.59259031  0.59781550  0.71193708     0.37300
H658        H  0.71607670  0.85977401  0.74662457     0.31800
H659        H  0.76276146  0.77998048  0.59656869     0.30700
H660        H  0.71819489  0.69493505  0.58748949     0.32300
H661        H  0.67389256  0.63642595  0.59404580     0.31300
H662        H  0.76249526  0.77556175  0.79477716     0.35300
H663        H  0.78014451  0.69599806  0.81215877     0.28000
H664        H  0.54331783  0.78822299  0.64729340     0.32300
H665        H  0.58320702  0.66089654  0.62092731     0.35100
H666        H  0.75893807  0.80791779  0.63147500     0.27700
H667        H  0.79158921  0.65532522  0.79985854     0.40600
H668        H  0.58232282  0.70353487  0.84588532     0.30700
H669        H  0.65204216  0.78595638  0.83037314     0.38300
H670        H  0.66649860  0.59584366  0.61346119     0.30100
H671        H  0.59963541  0.61135131  0.78782398     0.30200
H672        H  0.54589982  0.74978727  0.62545276     0.30500
C673        C  0.72278669  0.47038360  0.51898759     0.15400
C674        C  0.69881653  0.48072364  0.54937340    -0.33700
C675        C  0.70827221  0.46793169  0.58745155     0.19800
C676        C  0.73842807  0.44354183  0.59491330     0.02000
C677        C  0.76108630  0.43134846  0.56402342    -0.23400
C678        C  0.75333300  0.44633440  0.52612083     0.11100
S679        S  0.72296068  0.49220725  0.47373827    -0.07000
C680        C  0.76514665  0.46959390  0.46454452    -0.10500
C681        C  0.77740172  0.44511812  0.49435374    -0.27100
S682        S  0.74923125  0.43655829  0.64386106    -0.04300
C683        C  0.71397549  0.46810233  0.65368094    -0.17800
C684        C  0.69403291  0.48186788  0.62107421    -0.15800
H685        H  0.67657807  0.50130157  0.54420221     0.19600
H686        H  0.78616182  0.41423993  0.56986163     0.15600
H687        H  0.80508209  0.43129912  0.49473877     0.18200
H688        H  0.67245893  0.50343385  0.62180514     0.11500
C689        C  0.41769143  0.61364830  0.85461094     0.15400
C690        C  0.42502603  0.58747631  0.88523755    -0.33700
C691        C  0.40802640  0.55074963  0.88228834     0.19800
C692        C  0.38306818  0.54092239  0.85130255     0.02000
C693        C  0.37402300  0.56783070  0.82163902    -0.23400
C694        C  0.39267097  0.60413271  0.82352571     0.11100
S695        S  0.44314510  0.65600862  0.84835263    -0.07000
C696        C  0.42018649  0.66103479  0.80328359    -0.10500
C697        C  0.39345305  0.63175626  0.79410472    -0.27100
S698        S  0.37201600  0.49316224  0.84890659    -0.04300
C699        C  0.40242001  0.48645890  0.88912642    -0.17800
C700        C  0.41864769  0.51974362  0.90435095    -0.15800
H701        H  0.44614795  0.59432465  0.90833545     0.19600
H702        H  0.35625837  0.55977109  0.79631303     0.15600
H703        H  0.37851156  0.62905730  0.76592383     0.18200
H704        H  0.44096687  0.52076293  0.92732728     0.11500
C705        C  0.87328829  0.02202734  0.35647473     0.15400
C706        C  0.86708328  0.06103192  0.35502050    -0.33700
C707        C  0.86963578  0.07987401  0.31817537     0.19800
C708        C  0.87580430  0.06040681  0.28401149     0.02000
C709        C  0.88025347  0.02121528  0.28527587    -0.23400
C710        C  0.88014430  0.00285498  0.32229656     0.11100
S711        S  0.88091926  0.99610191  0.39889118    -0.07000
C712        C  0.89505011  0.95999136  0.37011815    -0.10500
C713        C  0.89246627  0.96713270  0.33002933    -0.27100
S714        S  0.88632028  0.08871219  0.24376972    -0.04300
C715        C  0.88367546  0.12703733  0.27347093    -0.17800
C716        C  0.87347390  0.11835270  0.31202933    -0.15800
H717        H  0.86441484  0.07662425  0.38180126     0.19600
H718        H  0.88767254  0.00643340  0.25906578     0.15600
H719        H  0.90299105  0.94866307  0.30791699     0.18200
H720        H  0.87416726  0.13873609  0.33534596     0.11500
C721        C  0.18201849  0.12899180  0.63166245     0.15400
C722        C  0.15629400  0.11638904  0.60199616    -0.33700
C723        C  0.16070164  0.13325975  0.56448951     0.19800
C724        C  0.18720112  0.16364040  0.55743213     0.02000
C725        C  0.21194331  0.17734856  0.58764944    -0.23400
C726        C  0.20970897  0.15836990  0.62450701     0.11100
S727        S  0.18838632  0.10466458  0.67497889    -0.07000
C728        C  0.22998115  0.13288249  0.68282573    -0.10500
C729        C  0.23712677  0.16114733  0.65431536    -0.27100
S730        S  0.19168718  0.17667621  0.50879900    -0.04300
C731        C  0.15952658  0.13927389  0.49800621    -0.17800
C732        C  0.14483141  0.11913176  0.53047956    -0.15800
H733        H  0.13670152  0.09169685  0.60685641     0.19600
H734        H  0.23462260  0.19913750  0.58159760     0.15600
H735        H  0.26374763  0.17901921  0.65272193     0.18200
H736        H  0.12601024  0.09359261  0.52905918     0.11500
C737        C  0.19612909  0.97725307  0.99356296     0.15400
C738        C  0.17191186  0.98721358  0.02406388    -0.33700
C739        C  0.17948533  0.97193926  0.06174979     0.19800
C740        C  0.20875574  0.94651223  0.06869446     0.02000
C741        C  0.23192005  0.93518451  0.03770603    -0.23400
C742        C  0.22537081  0.95168419  0.00016626     0.11100
S743        S  0.19781553  0.00014113  0.94873426    -0.07000
C744        C  0.23858168  0.97541775  0.93875205    -0.10500
C745        C  0.24937104  0.94990201  0.96829015    -0.27100
S746        S  0.21745487  0.93642578  0.11759622    -0.04300
C747        C  0.18191680  0.96745378  0.12850408    -0.17800
C748        C  0.16383373  0.98368694  0.09584815    -0.15800
H749        H  0.15043604  0.00861547  0.01935567     0.19600
H750        H  0.25613189  0.91690391  0.04324947     0.15600
H751        H  0.27618745  0.93466403  0.96845292     0.18200
H752        H  0.14302344  0.00589880  0.09713450     0.11500
C753        C  0.47524838  0.29985549  0.19190312     0.15400
C754        C  0.51426399  0.29537231  0.20427985    -0.33700
C755        C  0.54266338  0.32302124  0.19152298     0.19800
C756        C  0.53216933  0.35483395  0.16953249     0.02000
C757        C  0.49316826  0.35983824  0.15818424    -0.23400
C758        C  0.46531015  0.33108506  0.16872503     0.11100
S759        S  0.43800769  0.26593993  0.19722448    -0.07000
C760        C  0.40967030  0.29323425  0.16615344    -0.10500
C761        C  0.42784942  0.32739325  0.15388537    -0.27100
S762        S  0.57066351  0.38170033  0.15111265    -0.04300
C763        C  0.60154289  0.34906858  0.17155111    -0.17800
C764        C  0.58266428  0.31975474  0.19307773    -0.15800
H765        H  0.52260519  0.26981643  0.22011507     0.19600
H766        H  0.48549724  0.38336686  0.13879668     0.15600
H767        H  0.41541574  0.34703105  0.13256446     0.18200
H768        H  0.59691050  0.29490087  0.20467724     0.11500
C769        C  0.96647810  0.28357379  0.95545347     0.15400
C770        C  0.99757129  0.25886937  0.95569029    -0.33700
C771        C  0.03592236  0.27503349  0.95585318     0.19800
C772        C  0.04310702  0.31408627  0.95356220     0.02000
C773        C  0.01193781  0.33877155  0.95142330    -0.23400
C774        C  0.97355856  0.32264236  0.95360773     0.11100
S775        S  0.91889338  0.26969336  0.96525482    -0.07000
C776        C  0.90831301  0.31688994  0.96777984    -0.10500
C777        C  0.94022188  0.34184364  0.96037494    -0.27100
S778        S  0.09124621  0.32816746  0.96110081    -0.04300
C779        C  0.10163240  0.28105704  0.96803018    -0.17800
C780        C  0.06942433  0.25601365  0.96390182    -0.15800
H781        H  0.99216897  0.22845425  0.95942110     0.19600
H782        H  0.01744026  0.36927316  0.95185392     0.15600
H783        H  0.94002112  0.37225200  0.96417467     0.18200
H784        H  0.06989827  0.22572274  0.97022721     0.11500
C785        C  0.14412289  0.50035090  0.34704234     0.15400
C786        C  0.14725981  0.52619804  0.37780570    -0.33700
C787        C  0.14339060  0.56492814  0.36814153     0.19800
C788        C  0.13898371  0.57752893  0.32933397     0.02000
C789        C  0.13724520  0.55186013  0.29856056    -0.23400
C790        C  0.13882493  0.51304563  0.30841884     0.11100
S791        S  0.13792197  0.45214037  0.35356256    -0.07000
C792        C  0.12652086  0.44922940  0.30408917    -0.10500
C793        C  0.12916870  0.48386973  0.28373240    -0.27100
S794        S  0.12869118  0.62433276  0.32386994    -0.04300
C795        C  0.12912569  0.62689651  0.37434413    -0.17800
C796        C  0.13783025  0.59330898  0.39417725    -0.15800
H797        H  0.14890094  0.51624556  0.40822197     0.18800
H798        H  0.13122710  0.56144270  0.26859478     0.15600
H799        H  0.11923298  0.48808781  0.25355975     0.18200
H800        H  0.13640393  0.58897122  0.42582783     0.11500
C801        C  0.77106225  0.64841031  0.03703274     0.15400
C802        C  0.79973559  0.65618509  0.06628670    -0.33700
C803        C  0.79001954  0.64743157  0.10581381     0.19800
C804        C  0.75319075  0.63224225  0.11569000     0.02000
C805        C  0.72432482  0.62553174  0.08669700    -0.23400
C806        C  0.73426290  0.63350634  0.04729553     0.11100
S807        S  0.77838262  0.65159867  0.98703628    -0.07000
C808        C  0.73142682  0.63253602  0.98011930    -0.10500
C809        C  0.71158209  0.62451214  0.01495904    -0.27100
S810        S  0.74874461  0.61800224  0.16393885    -0.04300
C811        C  0.79685201  0.63297296  0.17141306    -0.17800
C812        C  0.81514822  0.64830942  0.13791588    -0.15800
H813        H  0.82898131  0.66656207  0.05842407     0.19600
H814        H  0.69603688  0.61245973  0.09432032     0.15600
H815        H  0.68281221  0.61034594  0.01656378     0.18200
H816        H  0.84608769  0.65625366  0.13634070     0.11500
C817        C  0.52587509  0.75772195  0.45318455     0.15400
C818        C  0.48495531  0.75616572  0.45755287    -0.33700
C819        C  0.46489091  0.78963896  0.44980702     0.19800
C820        C  0.48445600  0.82288807  0.43692915     0.02000
C821        C  0.52529416  0.82417055  0.43164917    -0.23400
C822        C  0.54558875  0.79102567  0.44067773     0.11100
S823        S  0.55609795  0.72276928  0.46893311    -0.07000
C824        C  0.59603989  0.75329248  0.45936025    -0.10500
C825        C  0.58569972  0.78847537  0.44377232    -0.27100
S826        S  0.45586220  0.86172912  0.43516620    -0.04300
C827        C  0.41721625  0.83321034  0.45271327    -0.17800
C828        C  0.42646688  0.79537581  0.45863378    -0.15800
H829        H  0.46980470  0.73075541  0.46936413     0.19600
H830        H  0.54094236  0.85063351  0.42367590     0.15600
H831        H  0.60623711  0.81255225  0.43964381     0.18200
H832        H  0.40729083  0.77405743  0.47298823     0.11500
C833        C  0.00380366  0.73460866  0.69506932     0.15400
C834        C  0.03727738  0.75530297  0.70794690    -0.33700
C835        C  0.07049088  0.75540764  0.68419846     0.19800
C836        C  0.07152416  0.73299749  0.65128117     0.02000
C837        C  0.03915669  0.70993647  0.64032158    -0.23400
C838        C  0.00488318  0.71282158  0.66172007     0.11100
S839        S  0.95769902  0.74136482  0.71144076    -0.07000
C840        C  0.94009548  0.71685311  0.67138623    -0.10500
C841        C  0.96837455  0.70203367  0.64848289    -0.27100
S842        S  0.10969990  0.74377554  0.62081913    -0.04300
C843        C  0.12320306  0.78024900  0.65145224    -0.17800
C844        C  0.10094148  0.78197381  0.68501199    -0.15800
H845        H  0.03577637  0.77460569  0.73207329     0.19600
H846        H  0.03894012  0.69482112  0.61297829     0.15600
H847        H  0.96252743  0.68789652  0.62101156     0.18200
H848        H  0.10346352  0.80478174  0.70574676     0.11500
C849        C  0.59800575  0.04626519  0.89631996     0.15400
C850        C  0.58560092  0.00852838  0.89011565    -0.33700
C851        C  0.59655244  0.99231227  0.85507413     0.19800
C852        C  0.62034326  0.01210701  0.82801064     0.02000
C853        C  0.63372316  0.04967159  0.83476056    -0.23400
C854        C  0.62138586  0.06647546  0.86922571     0.11100
S855        S  0.58000010  0.07302675  0.93217502    -0.07000
C856        C  0.60279953  0.11235406  0.90984732    -0.10500
C857        C  0.62497416  0.10441711  0.87743726    -0.27100
S858        S  0.62654380  0.98861748  0.78531236    -0.04300
C859        C  0.59596397  0.95250634  0.80400561    -0.17800
C860        C  0.58246762  0.95815192  0.84140827    -0.15800
H861        H  0.56564497  0.99345853  0.91023479     0.19600
H862        H  0.65053471  0.06594577  0.81279045     0.15600
H863        H  0.63791574  0.12590702  0.85754054     0.18200
H864        H  0.56153753  0.93926113  0.85676481     0.11500
loop_ 
_geom_bond_atom_site_label_1 
_geom_bond_atom_site_label_2 
_geom_bond_distance 
_geom_bond_site_symmetry_2 
_ccdc_geom_bond_type 
C1            N2   1.356       .  A
C1            N6   1.357       .  A
C1          C859   1.462       .  S
N2            C3   1.355       .  A
C3            N4   1.362       .  A
C3          C139   1.471       .  S
N4            C5   1.363       .  A
C5            N6   1.360       .  A
C5          C629   1.474       .  S
C7            N8   1.374       .  A
C7           N12   1.366       .  A
C7          C856   1.461       .  S
N8            C9   1.364       .  A
C9           N10   1.361       .  A
C9           C72   1.492       .  S
N10          C11   1.352       .  A
C11          N12   1.348       .  A
C11         C404   1.480       .  S
C13          N14   1.356       .  A
C13          N18   1.362       .  A
C13         C840   1.459       .  S
N14          C15   1.354       .  A
C15          N16   1.364       .  A
C15         C650   1.459       .  S
N16          C17   1.357       .  A
C17          N18   1.356       .  A
C17         C229   1.475       .  S
C19          N20   1.356       .  A
C19          N24   1.353       .  A
C19         C843   1.462       .  S
N20          C21   1.359       .  A
C21          N22   1.369       .  A
C21         C158   1.468       .  S
N22          C23   1.369       .  A
C23          N24   1.350       .  A
C23         C539   1.473       .  S
C25          N26   1.357       .  A
C25          N30   1.375       .  A
C25         C824   1.479       .  S
N26          C27   1.350       .  A
C27          N28   1.369       .  A
C27         C630   1.486       .  S
N28          C29   1.368       .  A
C29          N30   1.374       .  A
C29         C221   1.512       .  S
C31          N32   1.355       .  A
C31          N36   1.374       .  A
C31         C827   1.478       .  S
N32          C33   1.347       .  A
C33          N34   1.365       .  A
C33         C138   1.467       .  S
N34          C35   1.362       .  A
C35          N36   1.374       .  A
C35         C541   1.501       .  S
C37          N38   1.371       .  A
C37          N42   1.358       .  A
C37         C808   1.480       .  S
N38          C39   1.371       .  A
C39          N40   1.365       .  A
C39         C635   1.497       .  S
N40          C41   1.365       .  A
C41          N42   1.352       .  A
C41          C77   1.477       .  S
C43          N44   1.353       .  A
C43          N48   1.364       .  A
C43         C811   1.470       .  S
N44          C45   1.352       .  A
C45          N46   1.369       .  A
C45         C295   1.482       .  S
N46          C47   1.371       .  A
C47          N48   1.368       .  A
C47         C215   1.499       .  S
Zr49         O50   2.439       .  S
Zr49         O51   2.484   1_556  S
Zr49         O52   2.449       .  S
Zr49         O55   2.513       .  S
Zr49         O57   2.390       .  S
Zr49         O58   2.390       .  S
Zr49         O59   2.427       .  S
Zr49         O60   2.424       .  S
O50         H106   0.990       .  S
O50         H114   0.991       .  S
O51          C71   1.291       .  A
O52          C73   1.287       .  A
O53         Zr63   2.371       .  S
O53          C72   1.271       .  A
O54         Zr62   2.469       .  S
O54          C73   1.292       .  A
O55          C72   1.296       .  A
O56         Zr64   2.390   1_554  S
O56          C71   1.276       .  A
O57         Zr62   2.389       .  S
O57         Zr64   2.361       .  S
O58         Zr63   2.418       .  S
O58         Zr64   2.395       .  S
O58          H93   0.963       .  S
O59         Zr62   2.413       .  S
O59         Zr79   2.389       .  S
O59          H96   0.966       .  S
O60         Zr63   2.375       .  S
O60         Zr79   2.399       .  S
Zr61         O86   2.445       .  S
Zr61         O80   2.457       .  S
Zr61         O88   2.532       .  S
Zr61         O76   2.417       .  S
Zr61         O67   2.363       .  S
Zr61         O68   2.422       .  S
Zr61         O69   2.392       .  S
Zr61         O70   2.394       .  S
Zr62         O81   2.434       .  S
Zr62         O74   2.435       .  S
Zr62         O75   2.476       .  S
Zr62         O68   2.413       .  S
Zr62         O69   2.382       .  S
Zr63         O65   2.437       .  S
Zr63         O87   2.449       .  S
Zr63         O89   2.389       .  S
Zr63         O67   2.365       .  S
Zr63         O70   2.384       .  S
Zr64         O90   2.437   1_556  S
Zr64         O91   2.437       .  S
Zr64         O66   2.440   1_556  S
Zr64         O67   2.357       .  S
Zr64         O68   2.399       .  S
O65         H102   0.990       .  S
O66          H97   0.990       .  S
O66         H111   0.990       .  S
O68          H94   0.969       .  S
O69         Zr79   2.376       .  S
O70         Zr79   2.397       .  S
O70          H95   0.966       .  S
C71         C347   1.469       .  S
C73         C261   1.480       .  S
O74         H110   0.990   1_556  S
O75          C77   1.294       .  A
O76          C77   1.280       .  A
O78         Zr79   2.442       .  S
O78         H107   0.990       .  S
Zr79         O82   2.437       .  S
Zr79         O83   2.444       .  S
Zr79         O84   2.399       .  S
O80          C85   1.288       .  A
O81          H98   0.990       .  S
O81         H113   0.990       .  S
O82          H99   0.990       .  S
O83         H103   0.990       .  S
O83         H112   0.989       .  S
O84          C85   1.278       .  A
C85         C605   1.465       .  S
O86         H105   0.990       .  S
O86         H109   0.991       .  S
O87         H101   0.991       .  S
O87         H108   0.990       .  S
O88          C92   1.298       .  A
O89          C92   1.276       .  A
O90         H100   0.990       .  S
O91         H104   0.990       .  S
C92         C587   1.481       .  S
Zr115       O116   2.441       .  S
Zr115       O117   2.448       .  S
Zr115       O118   2.430       .  S
Zr115       O121   2.474       .  S
Zr115       O123   2.391       .  S
Zr115       O124   2.386       .  S
Zr115       O125   2.424       .  S
Zr115       O126   2.401       .  S
O116        H172   0.990       .  S
O116        H180   0.990       .  S
O117        C137   1.286       .  A
O118        C139   1.282       .  A
O119       Zr129   2.379       .  S
O119        C138   1.264       .  A
O120       Zr128   2.445       .  S
O120        C139   1.288       .  A
O121        C138   1.286       .  A
O122       Zr130   2.397       .  S
O122        C137   1.277       .  A
O123       Zr128   2.391       .  S
O123       Zr130   2.374       .  S
O124       Zr129   2.399       .  S
O124       Zr130   2.389       .  S
O124        H159   0.965       .  S
O125       Zr128   2.407       .  S
O125       Zr145   2.406       .  S
O125        H162   0.962       .  S
O126       Zr129   2.388       .  S
O126       Zr145   2.394       .  S
Zr127       O152   2.437       .  S
Zr127       O146   2.450   1_565  S
Zr127       O154   2.511       .  S
Zr127       O142   2.429       .  S
Zr127       O133   2.394       .  S
Zr127       O134   2.430       .  S
Zr127       O135   2.383       .  S
Zr127       O136   2.393       .  S
Zr128       O147   2.436       .  S
Zr128       O140   2.433       .  S
Zr128       O141   2.459       .  S
Zr128       O134   2.408       .  S
Zr128       O135   2.369       .  S
Zr129       O131   2.437       .  S
Zr129       O153   2.442       .  S
Zr129       O155   2.371       .  S
Zr129       O133   2.384       .  S
Zr129       O136   2.406       .  S
Zr130       O156   2.436       .  S
Zr130       O157   2.436       .  S
Zr130       O132   2.438       .  S
Zr130       O133   2.362       .  S
Zr130       O134   2.391       .  S
O131        H168   0.990       .  S
O132        H163   0.990       .  S
O132        H177   0.990       .  S
O134        H160   0.967       .  S
O135       Zr145   2.353       .  S
O136       Zr145   2.389       .  S
O136        H161   0.966       .  S
C137        C593   1.466       .  S
O140        H176   0.990       .  S
O141        C143   1.289       .  A
O142        C143   1.285       .  A
C143        C351   1.470       .  S
O144       Zr145   2.438       .  S
O144        H173   0.990       .  S
Zr145       O148   2.437   1_565  S
Zr145       O149   2.446   1_565  S
Zr145       O150   2.437   1_565  S
O146        C151   1.288       .  A
O147        H164   0.990       .  S
O147        H179   0.990       .  S
O148        H165   0.990       .  S
O149        H169   0.990       .  S
O149        H178   0.990       .  S
O150        C151   1.281       .  A
C151        C435   1.465       .  S
O152        H171   0.990       .  S
O152        H175   0.990       .  S
O153        H167   0.990       .  S
O153        H174   0.990       .  S
O154        C158   1.285       .  A
O155        C158   1.262       .  A
O156        H166   0.990       .  S
O157        H170   0.990       .  S
C181        N182   1.370       .  A
C181        N186   1.374       .  A
C181        C795   1.467       .  S
N182        C183   1.354       .  A
C183        N184   1.361       .  A
C183        C216   1.497       .  S
N184        C185   1.359       .  A
C185        N186   1.363       .  A
C185        C540   1.495       .  S
C187        N188   1.358       .  A
C187        N192   1.368       .  A
C187        C792   1.466       .  S
N188        C189   1.349       .  A
C189        N190   1.362       .  A
C189        C294   1.466   1_455  S
N190        C191   1.358       .  A
C191        N192   1.367       .  A
C191        C463   1.484       .  S
Zr193       O194   2.442       .  S
Zr193       O195   2.465       .  S
Zr193       O196   2.427       .  S
Zr193       O199   2.539       .  S
Zr193       O201   2.401       .  S
Zr193       O202   2.383       .  S
Zr193       O203   2.434       .  S
Zr193       O204   2.393       .  S
O194        H250   0.991       .  S
O194        H258   0.991       .  S
O195        C215   1.290       .  A
O196        C217   1.282       .  A
O197       Zr207   2.366       .  S
O197        C216   1.272   1_655  A
O198       Zr206   2.446       .  S
O198        C217   1.289       .  A
O199        C216   1.303   1_655  A
O200       Zr208   2.462       .  S
O200        C215   1.290       .  A
O201       Zr206   2.395       .  S
O201       Zr208   2.357       .  S
O202       Zr207   2.400       .  S
O202       Zr208   2.389       .  S
O202        H237   0.965       .  S
O203       Zr206   2.429       .  S
O203       Zr223   2.381       .  S
O203        H240   0.965       .  S
O204       Zr207   2.388       .  S
O204       Zr223   2.373       .  S
Zr205       O230   2.439       .  S
Zr205       O224   2.497       .  S
Zr205       O232   2.518       .  S
Zr205       O220   2.470       .  S
Zr205       O211   2.418       .  S
Zr205       O212   2.440       .  S
Zr205       O213   2.395       .  S
Zr205       O214   2.394       .  S
Zr206       O225   2.436       .  S
Zr206       O218   2.433       .  S
Zr206       O219   2.497       .  S
Zr206       O212   2.403       .  S
Zr206       O213   2.374       .  S
Zr207       O209   2.433       .  S
Zr207       O231   2.437       .  S
Zr207       O233   2.387       .  S
Zr207       O211   2.381       .  S
Zr207       O214   2.398       .  S
Zr208       O234   2.438       .  S
Zr208       O235   2.436       .  S
Zr208       O210   2.439       .  S
Zr208       O211   2.410       .  S
Zr208       O212   2.428       .  S
O209        H246   0.991   1_655  S
O210        H241   0.990       .  S
O210        H255   0.990       .  S
O212        H238   0.965       .  S
O213       Zr223   2.382       .  S
O214       Zr223   2.387       .  S
O214        H239   0.967       .  S
C217        C597   1.463       .  S
O218        H254   0.990       .  S
O219        C221   1.297       .  A
O220        C221   1.291       .  A
O222       Zr223   2.438       .  S
O222        H251   0.990       .  S
Zr223       O226   2.439       .  S
Zr223       O227   2.440       .  S
Zr223       O228   2.394       .  S
O224        C229   1.289       .  A
O225        H242   0.990       .  S
O225        H257   0.990       .  S
O226        H243   0.990       .  S
O227        H247   0.990       .  S
O227        H256   0.990       .  S
O228        C229   1.265       .  A
O230        H249   0.990       .  S
O230        H253   0.990       .  S
O231        H245   0.989       .  S
O231        H252   0.990       .  S
O232        C236   1.295       .  A
O233        C236   1.267       .  A
O234        H244   0.990       .  S
O235        H248   0.990       .  S
C236        C509   1.493       .  S
C259        N260   1.365       .  A
C259        N264   1.356   1_556  A
C259        C776   1.475       .  S
N260        C261   1.368       .  A
C261        N262   1.363   1_556  A
N262        C263   1.361       .  A
C263        N264   1.354       .  A
C263        C307   1.468       .  S
C265        N266   1.365       .  A
C265        N270   1.358   1_556  A
C265        C779   1.471       .  S
N266        C267   1.365       .  A
C267        N268   1.357   1_556  A
C267        C385   1.471       .  S
N268        C269   1.357       .  A
C269        N270   1.355       .  A
C269        C467   1.464       .  S
Zr271       O272   2.441       .  S
Zr271       O273   2.445       .  S
Zr271       O274   2.435       .  S
Zr271       O277   2.479       .  S
Zr271       O279   2.387       .  S
Zr271       O280   2.391       .  S
Zr271       O281   2.425       .  S
Zr271       O282   2.404       .  S
O272        H328   0.990       .  S
O272        H336   0.990       .  S
O273        C293   1.285       .  A
O274        C295   1.282       .  A
O275       Zr285   2.374       .  S
O275        C294   1.263       .  A
O276       Zr284   2.469       .  S
O276        C295   1.293       .  A
O277        C294   1.287       .  A
O278       Zr286   2.403       .  S
O278        C293   1.279       .  A
O279       Zr284   2.382       .  S
O279       Zr286   2.367       .  S
O280       Zr285   2.412       .  S
O280       Zr286   2.382       .  S
O280        H315   0.967       .  S
O281       Zr284   2.413       .  S
O281       Zr301   2.400       .  S
O281        H318   0.960       .  S
O282       Zr285   2.389       .  S
O282       Zr301   2.392       .  S
Zr283       O308   2.437       .  S
Zr283       O302   2.448       .  S
Zr283       O310   2.485       .  S
Zr283       O298   2.415       .  S
Zr283       O289   2.391       .  S
Zr283       O290   2.418       .  S
Zr283       O291   2.388       .  S
Zr283       O292   2.386       .  S
Zr284       O303   2.434       .  S
Zr284       O296   2.436       .  S
Zr284       O297   2.480       .  S
Zr284       O290   2.406       .  S
Zr284       O291   2.388       .  S
Zr285       O287   2.440       .  S
Zr285       O309   2.442       .  S
Zr285       O311   2.373       .  S
Zr285       O289   2.379       .  S
Zr285       O292   2.403       .  S
Zr286       O312   2.436       .  S
Zr286       O313   2.436       .  S
Zr286       O288   2.438       .  S
Zr286       O289   2.372       .  S
Zr286       O290   2.390       .  S
O287        H324   0.990       .  S
O288        H319   0.990       .  S
O288        H333   0.990       .  S
O290        H316   0.966       .  S
O291       Zr301   2.370       .  S
O292       Zr301   2.385       .  S
O292        H317   0.965       .  S
C293        C599   1.466       .  S
O296        H332   0.990       .  S
O297        C299   1.295       .  A
O298        C299   1.281       .  A
C299        C345   1.473       .  S
O300       Zr301   2.435       .  S
O300        H329   0.990       .  S
Zr301       O304   2.437       .  S
Zr301       O305   2.441       .  S
Zr301       O306   2.423       .  S
O302        C307   1.286       .  A
O303        H320   0.990       .  S
O303        H335   0.990       .  S
O304        H321   0.990       .  S
O305        H325   0.990       .  S
O305        H334   0.989       .  S
O306        C307   1.281       .  A
O308        H327   0.990       .  S
O308        H331   0.990       .  S
O309        H323   0.989       .  S
O309        H330   0.990       .  S
O310        C314   1.289       .  A
O311        C314   1.266       .  A
O312        H322   0.990       .  S
O313        H326   0.990       .  S
C314        C513   1.457       .  S
C337        N338   1.361       .  A
C337        N342   1.360       .  A
C337        C760   1.474       .  S
N338        C339   1.363       .  A
C339        N340   1.365       .  A
C339        C475   1.483       .  S
N340        C341   1.364       .  A
C341        N342   1.357       .  A
C341        C383   1.474       .  S
C343        N344   1.359       .  A
C343        N348   1.351       .  A
C343        C763   1.465       .  S
N344        C345   1.365       .  A
C345        N346   1.369       .  A
N346        C347   1.364       .  A
C347        N348   1.351       .  A
C349        N350   1.359       .  A
C349        N354   1.353   1_565  A
C349        C744   1.461       .  S
N350        C351   1.363       .  A
C351        N352   1.363   1_565  A
N352        C353   1.362       .  A
C353        N354   1.351       .  A
C353        C389   1.467       .  S
C355        N356   1.356   1_565  A
C355        N360   1.365       .  A
C355        C747   1.466       .  S
N356        C357   1.348       .  A
C357        N358   1.367       .  A
C357        C482   1.473       .  S
N358        C359   1.363   1_545  A
C359        N360   1.366       .  A
C359        C553   1.490       .  S
Zr361       O362   2.441       .  S
Zr361       O363   2.484   1_556  S
Zr361       O364   2.444       .  S
Zr361       O367   2.512       .  S
Zr361       O369   2.398       .  S
Zr361       O370   2.384       .  S
Zr361       O371   2.432       .  S
Zr361       O372   2.408       .  S
O362        H418   0.990       .  S
O362        H426   0.990       .  S
O363        C383   1.293       .  A
O364        C385   1.285       .  A
O365       Zr375   2.380       .  S
O365        C384   1.276       .  A
O366       Zr374   2.450       .  S
O366        C385   1.288       .  A
O367        C384   1.296       .  A
O368       Zr376   2.407   1_554  S
O368        C383   1.277       .  A
O369       Zr374   2.390       .  S
O369       Zr376   2.368       .  S
O370       Zr375   2.399       .  S
O370       Zr376   2.390       .  S
O370        H405   0.965       .  S
O371       Zr374   2.417       .  S
O371       Zr391   2.409       .  S
O371        H408   0.966       .  S
O372       Zr375   2.374       .  S
O372       Zr391   2.393       .  S
Zr373       O398   2.442       .  S
Zr373       O392   2.470       .  S
Zr373       O400   2.512       .  S
Zr373       O388   2.412       .  S
Zr373       O379   2.382       .  S
Zr373       O380   2.435       .  S
Zr373       O381   2.384       .  S
Zr373       O382   2.385       .  S
Zr374       O393   2.436       .  S
Zr374       O386   2.434       .  S
Zr374       O387   2.461       .  S
Zr374       O380   2.407       .  S
Zr374       O381   2.372       .  S
Zr375       O377   2.435       .  S
Zr375       O399   2.440       .  S
Zr375       O401   2.395       .  S
Zr375       O379   2.370       .  S
Zr375       O382   2.392       .  S
Zr376       O402   2.435   1_556  S
Zr376       O403   2.436       .  S
Zr376       O378   2.438   1_556  S
Zr376       O379   2.372       .  S
Zr376       O380   2.403       .  S
O377        H414   0.990       .  S
O378        H409   0.990       .  S
O378        H423   0.990       .  S
O380        H406   0.967       .  S
O381       Zr391   2.360       .  S
O382       Zr391   2.387       .  S
O382        H407   0.965       .  S
C384        C585   1.492       .  S
O386        H422   0.990       .  S
O387        C389   1.292       .  A
O388        C389   1.281       .  A
O390       Zr391   2.440       .  S
O390        H419   0.990       .  S
Zr391       O394   2.440       .  S
Zr391       O395   2.442       .  S
Zr391       O396   2.432       .  S
O392        C397   1.289       .  A
O393        H410   0.990       .  S
O393        H425   0.990       .  S
O394        H411   0.990       .  S
O395        H415   0.990       .  S
O395        H424   0.989       .  S
O396        C397   1.285       .  A
C397        C437   1.488       .  S
O398        H417   0.990       .  S
O398        H421   0.990       .  S
O399        H413   0.990       .  S
O399        H420   0.990       .  S
O400        C404   1.296       .  A
O401        C404   1.274       .  A
O402        H412   0.990       .  S
O403        H416   0.990       .  S
C427        N428   1.363       .  A
C427        N432   1.364       .  A
C427        C731   1.465       .  S
N428        C429   1.358       .  A
C429        N430   1.368       .  A
C429        C462   1.482       .  S
N430        C431   1.363       .  A
C431        N432   1.356       .  A
C431        C545   1.491       .  S
C433        N434   1.348       .  A
C433        N438   1.356       .  A
C433        C728   1.459       .  S
N434        C435   1.346       .  A
C435        N436   1.370       .  A
N436        C437   1.371       .  A
C437        N438   1.364       .  A
Zr439       O440   2.438       .  S
Zr439       O441   2.490       .  S
Zr439       O442   2.466       .  S
Zr439       O445   2.520       .  S
Zr439       O447   2.391       .  S
Zr439       O448   2.386       .  S
Zr439       O449   2.434       .  S
Zr439       O450   2.416       .  S
O440        H496   0.990       .  S
O440        H504   0.991       .  S
O441        C461   1.293       .  A
O442        C463   1.290       .  A
O443       Zr453   2.373       .  S
O443        C462   1.265       .  A
O444       Zr452   2.465       .  S
O444        C463   1.290       .  A
O445        C462   1.296       .  A
O446       Zr454   2.380       .  S
O446        C461   1.272       .  A
O447       Zr452   2.400       .  S
O447       Zr454   2.385       .  S
O448       Zr453   2.403       .  S
O448       Zr454   2.384       .  S
O448        H483   0.969       .  S
O449       Zr452   2.410       .  S
O449       Zr469   2.397       .  S
O449        H486   0.964       .  S
O450       Zr453   2.379       .  S
O450       Zr469   2.394       .  S
Zr451       O476   2.439       .  S
Zr451       O470   2.448       .  S
Zr451       O478   2.498       .  S
Zr451       O466   2.425       .  S
Zr451       O457   2.391       .  S
Zr451       O458   2.422       .  S
Zr451       O459   2.388       .  S
Zr451       O460   2.382       .  S
Zr452       O471   2.437       .  S
Zr452       O464   2.437       .  S
Zr452       O465   2.449       .  S
Zr452       O458   2.413       .  S
Zr452       O459   2.391       .  S
Zr453       O455   2.438       .  S
Zr453       O477   2.442       .  S
Zr453       O479   2.373       .  S
Zr453       O457   2.392       .  S
Zr453       O460   2.404       .  S
Zr454       O480   2.439       .  S
Zr454       O481   2.436       .  S
Zr454       O456   2.439       .  S
Zr454       O457   2.378       .  S
Zr454       O458   2.385       .  S
O455        H492   0.990       .  S
O456        H487   0.990       .  S
O456        H501   0.990       .  S
O458        H484   0.963       .  S
O459       Zr469   2.366       .  S
O460       Zr469   2.380       .  S
O460        H485   0.966       .  S
C461        C515   1.470   1_455  S
O464        H500   0.990       .  S
O465        C467   1.288       .  A
O466        C467   1.284       .  A
O468       Zr469   2.438       .  S
O468        H497   0.990       .  S
Zr469       O472   2.438       .  S
Zr469       O473   2.440       .  S
Zr469       O474   2.435       .  S
O470        C475   1.286       .  A
O471        H488   0.990       .  S
O471        H503   0.990       .  S
O472        H489   0.990       .  S
O473        H493   0.990       .  S
O473        H502   0.990       .  S
O474        C475   1.283       .  A
O476        H495   0.990       .  S
O476        H499   0.990       .  S
O477        H491   0.989       .  S
O477        H498   0.990       .  S
O478        C482   1.293       .  A
O479        C482   1.265       .  A
O480        H490   0.990       .  S
O481        H494   0.990       .  S
C505        N506   1.365       .  A
C505        N510   1.365       .  A
C505        C712   1.453       .  S
N506        C507   1.351       .  A
C507        N508   1.365       .  A
C507        C560   1.491   1_655  S
N508        C509   1.366       .  A
C509        N510   1.358       .  A
C511        N512   1.355       .  A
C511        N516   1.357       .  A
C511        C715   1.451       .  S
N512        C513   1.355       .  A
C513        N514   1.366       .  A
N514        C515   1.358       .  A
C515        N516   1.354       .  A
Zr517       O518   2.441       .  S
Zr517       O519   2.502       .  S
Zr517       O520   2.453       .  S
Zr517       O523   2.527       .  S
Zr517       O525   2.391       .  S
Zr517       O526   2.379       .  S
Zr517       O527   2.441       .  S
Zr517       O528   2.424       .  S
O518        H574   0.990       .  S
O518        H582   0.990       .  S
O519        C539   1.296       .  A
O520        C541   1.287       .  A
O521       Zr531   2.373       .  S
O521        C540   1.270       .  A
O522       Zr530   2.518       .  S
O522        C541   1.302       .  A
O523        C540   1.299       .  A
O524       Zr532   2.403       .  S
O524        C539   1.272       .  A
O525       Zr530   2.395       .  S
O525       Zr532   2.362       .  S
O526       Zr531   2.417       .  S
O526       Zr532   2.396       .  S
O526        H561   0.966       .  S
O527       Zr530   2.418       .  S
O527       Zr547   2.389       .  S
O527        H564   0.964       .  S
O528       Zr531   2.376       .  S
O528       Zr547   2.413       .  S
Zr529       O554   2.441   1_565  S
Zr529       O548   2.490       .  S
Zr529       O556   2.556       .  S
Zr529       O544   2.430   1_565  S
Zr529       O535   2.361       .  S
Zr529       O536   2.434       .  S
Zr529       O537   2.402       .  S
Zr529       O538   2.385       .  S
Zr530       O549   2.434       .  S
Zr530       O542   2.436       .  S
Zr530       O543   2.518   1_565  S
Zr530       O536   2.418       .  S
Zr530       O537   2.401       .  S
Zr531       O533   2.436       .  S
Zr531       O555   2.438       .  S
Zr531       O557   2.403       .  S
Zr531       O535   2.359       .  S
Zr531       O538   2.385       .  S
Zr532       O558   2.438       .  S
Zr532       O559   2.434       .  S
Zr532       O534   2.439       .  S
Zr532       O535   2.371       .  S
Zr532       O536   2.384       .  S
O533        H570   0.990       .  S
O534        H565   0.990       .  S
O534        H579   0.990       .  S
O536        H562   0.961       .  S
O537       Zr547   2.383       .  S
O538       Zr547   2.394       .  S
O538        H563   0.965       .  S
O542        H578   0.990       .  S
O543        C545   1.303       .  A
O544        C545   1.283       .  A
O546       Zr547   2.439       .  S
O546        H575   0.990       .  S
Zr547       O550   2.438       .  S
Zr547       O551   2.438       .  S
Zr547       O552   2.423       .  S
O548        C553   1.294       .  A
O549        H566   0.990       .  S
O549        H581   0.990       .  S
O550        H567   0.990       .  S
O551        H571   0.990       .  S
O551        H580   0.989       .  S
O552        C553   1.280       .  A
O554        H573   0.990   1_545  S
O554        H577   0.990       .  S
O555        H569   0.990       .  S
O555        H576   0.988       .  S
O556        C560   1.306       .  A
O557        C560   1.277       .  A
O558        H568   0.990       .  S
O559        H572   0.990       .  S
C583        N584   1.377       .  A
C583        N588   1.370       .  A
C583        C699   1.466       .  S
N584        C585   1.365       .  A
C585        N586   1.353       .  A
N586        C587   1.350       .  A
C587        N588   1.350       .  A
C589        N590   1.352       .  A
C589        N594   1.356       .  A
C589        C696   1.463       .  S
N590        C591   1.354       .  A
C591        N592   1.357       .  A
C591        C631   1.462       .  S
N592        C593   1.360       .  A
C593        N594   1.364       .  A
C595        N596   1.351       .  A
C595        N600   1.352       .  A
C595        C680   1.455       .  S
N596        C597   1.351       .  A
C597        N598   1.362       .  A
N598        C599   1.363       .  A
C599        N600   1.360       .  A
C601        N602   1.351       .  A
C601        N606   1.352       .  A
C601        C683   1.458       .  S
N602        C603   1.352       .  A
C603        N604   1.363       .  A
C603        C643   1.457       .  S
N604        C605   1.365       .  A
C605        N606   1.360       .  A
Zr607       O608   2.440       .  S
Zr607       O609   2.445       .  S
Zr607       O610   2.442       .  S
Zr607       O613   2.509       .  S
Zr607       O615   2.400       .  S
Zr607       O616   2.388       .  S
Zr607       O617   2.424       .  S
Zr607       O618   2.389       .  S
O608        H664   0.990       .  S
O608        H672   0.990       .  S
O609        C629   1.285       .  A
O610        C631   1.286       .  A
O611       Zr621   2.388       .  S
O611        C630   1.267       .  A
O612       Zr620   2.427       .  S
O612        C631   1.285       .  A
O613        C630   1.296       .  A
O614       Zr622   2.423       .  S
O614        C629   1.282       .  A
O615       Zr620   2.401       .  S
O615       Zr622   2.368       .  S
O616       Zr621   2.402       .  S
O616       Zr622   2.389       .  S
O616        H651   0.967       .  S
O617       Zr620   2.421       .  S
O617       Zr637   2.377       .  S
O617        H654   0.968       .  S
O618       Zr621   2.385       .  S
O618       Zr637   2.375       .  S
Zr619       O644   2.437       .  S
Zr619       O638   2.462       .  S
Zr619       O646   2.467       .  S
Zr619       O634   2.453       .  S
Zr619       O625   2.412       .  S
Zr619       O626   2.417       .  S
Zr619       O627   2.381       .  S
Zr619       O628   2.410       .  S
Zr620       O639   2.440       .  S
Zr620       O632   2.432       .  S
Zr620       O633   2.489       .  S
Zr620       O626   2.395       .  S
Zr620       O627   2.372       .  S
Zr621       O623   2.436       .  S
Zr621       O645   2.442       .  S
Zr621       O647   2.378       .  S
Zr621       O625   2.382       .  S
Zr621       O628   2.405       .  S
Zr622       O648   2.437       .  S
Zr622       O649   2.435       .  S
Zr622       O624   2.436       .  S
Zr622       O625   2.375       .  S
Zr622       O626   2.411       .  S
O623        H660   0.990       .  S
O624        H655   0.990       .  S
O624        H669   0.990       .  S
O626        H652   0.966       .  S
O627       Zr637   2.377       .  S
O628       Zr637   2.383       .  S
O628        H653   0.966       .  S
O632        H668   0.990       .  S
O633        C635   1.294       .  A
O634        C635   1.287       .  A
O636       Zr637   2.440       .  S
O636        H665   0.990       .  S
Zr637       O640   2.436       .  S
Zr637       O641   2.440       .  S
Zr637       O642   2.385       .  S
O638        C643   1.289       .  A
O639        H656   0.990       .  S
O639        H671   0.990       .  S
O640        H657   0.990       .  S
O641        H661   0.990       .  S
O641        H670   0.990       .  S
O642        C643   1.275       .  A
O644        H663   0.990       .  S
O644        H667   0.990       .  S
O645        H659   0.990       .  S
O645        H666   0.990       .  S
O646        C650   1.285       .  A
O647        C650   1.265       .  A
O648        H658   0.990       .  S
O649        H662   0.990       .  S
C673        S679   1.699       .  A
C673        C678   1.389       .  A
C673        C674   1.394       .  A
C674        C675   1.396       .  A
C674        H685   1.083       .  S
C675        C684   1.361       .  A
C675        C676   1.388       .  A
C676        S682   1.711       .  A
C676        C677   1.402       .  A
C677        C678   1.404       .  A
C677        H686   1.083       .  S
C678        C681   1.369       .  A
S679        C680   1.716       .  A
C680        C681   1.384       .  A
C681        H687   1.083       .  S
S682        C683   1.719       .  A
C683        C684   1.380       .  A
C684        H688   1.084       .  S
C689        S695   1.702       .  A
C689        C694   1.388       .  A
C689        C690   1.398       .  A
C690        C691   1.399       .  A
C690        H701   1.083       .  S
C691        C700   1.367       .  A
C691        C692   1.387       .  A
C692        S698   1.711       .  A
C692        C693   1.405       .  A
C693        C694   1.405       .  A
C693        H702   1.083       .  S
C694        C697   1.374       .  A
S695        C696   1.719       .  A
C696        C697   1.385       .  A
C697        H703   1.083       .  S
S698        C699   1.722       .  A
C699        C700   1.384       .  A
C700        H704   1.084       .  S
C705        S711   1.707   1_545  A
C705        C710   1.388       .  A
C705        C706   1.399       .  A
C706        C707   1.402       .  A
C706        H717   1.083       .  S
C707        C716   1.366       .  A
C707        C708   1.388       .  A
C708        S714   1.701       .  A
C708        C709   1.395       .  A
C709        C710   1.397       .  A
C709        H718   1.083       .  S
C710        C713   1.363   1_545  A
S711        C712   1.717       .  A
C712        C713   1.380       .  A
C713        H719   1.084       .  S
S714        C715   1.715       .  A
C715        C716   1.382       .  A
C716        H720   1.084       .  S
C721        S727   1.698       .  A
C721        C726   1.388       .  A
C721        C722   1.396       .  A
C722        C723   1.397       .  A
C722        H733   1.083       .  S
C723        C732   1.366       .  A
C723        C724   1.388       .  A
C724        S730   1.709       .  A
C724        C725   1.403       .  A
C725        C726   1.404       .  A
C725        H734   1.083       .  S
C726        C729   1.372       .  A
S727        C728   1.719       .  A
C728        C729   1.385       .  A
C729        H735   1.083       .  S
S730        C731   1.721       .  A
C731        C732   1.382       .  A
C732        H736   1.083       .  S
C737        S743   1.703   1_565  A
C737        C742   1.388   1_556  A
C737        C738   1.398   1_556  A
C738        C739   1.400       .  A
C738        H749   1.083   1_565  S
C739        C748   1.365       .  A
C739        C740   1.387       .  A
C740        S746   1.713       .  A
C740        C741   1.404       .  A
C741        C742   1.405       .  A
C741        H750   1.083       .  S
C742        C745   1.372   1_554  A
S743        C744   1.720   1_545  A
C744        C745   1.385       .  A
C745        H751   1.083       .  S
S746        C747   1.722       .  A
C747        C748   1.384       .  A
C748        H752   1.084   1_565  S
C753        S759   1.713       .  A
C753        C758   1.387       .  A
C753        C754   1.407       .  A
C754        C755   1.407       .  A
C754        H765   1.083       .  S
C755        C764   1.377       .  A
C755        C756   1.387       .  A
C756        S762   1.701       .  A
C756        C757   1.400       .  A
C757        C758   1.400       .  A
C757        H766   1.083       .  S
C758        C761   1.371       .  A
S759        C760   1.725       .  A
C760        C761   1.385       .  A
C761        H767   1.083       .  S
S762        C763   1.721       .  A
C763        C764   1.388       .  A
C764        H768   1.083       .  S
C769        S775   1.711       .  A
C769        C774   1.386       .  A
C769        C770   1.404       .  A
C770        C771   1.405   1_655  A
C770        H781   1.083       .  S
C771        C780   1.373       .  A
C771        C772   1.387       .  A
C772        S778   1.714       .  A
C772        C773   1.406       .  A
C773        C774   1.407   1_455  A
C773        H782   1.083       .  S
C774        C777   1.377       .  A
S775        C776   1.723       .  A
C776        C777   1.390       .  A
C777        H783   1.083       .  S
S778        C779   1.722       .  A
C779        C780   1.387       .  A
C780        H784   1.083       .  S
C785        S791   1.710       .  A
C785        C790   1.386       .  A
C785        C786   1.405       .  A
C786        C787   1.406       .  A
C786        H797   1.083       .  S
C787        C796   1.375       .  A
C787        C788   1.387       .  A
C788        S794   1.706       .  A
C788        C789   1.401       .  A
C789        C790   1.402       .  A
C789        H798   1.083       .  S
C790        C793   1.371       .  A
S791        C792   1.725       .  A
C792        C793   1.385       .  A
C793        H799   1.083       .  S
S794        C795   1.719       .  A
C795        C796   1.387       .  A
C796        H800   1.083       .  S
C801        S807   1.720   1_554  A
C801        C806   1.386       .  A
C801        C802   1.409       .  A
C802        C803   1.410       .  A
C802        H813   1.083       .  S
C803        C812   1.379       .  A
C803        C804   1.387       .  A
C804        S810   1.707       .  A
C804        C805   1.401       .  A
C805        C806   1.403       .  A
C805        H814   1.083       .  S
C806        C809   1.371       .  A
S807        C808   1.726       .  A
C808        C809   1.388   1_556  A
C809        H815   1.083       .  S
S810        C811   1.721       .  A
C811        C812   1.390       .  A
C812        H816   1.083       .  S
C817        S823   1.713       .  A
C817        C822   1.385       .  A
C817        C818   1.407       .  A
C818        C819   1.408       .  A
C818        H829   1.083       .  S
C819        C828   1.376       .  A
C819        C820   1.385       .  A
C820        S826   1.717       .  A
C820        C821   1.408       .  A
C821        C822   1.409       .  A
C821        H830   1.083       .  S
C822        C825   1.380       .  A
S823        C824   1.727       .  A
C824        C825   1.392       .  A
C825        H831   1.083       .  S
S826        C827   1.725       .  A
C827        C828   1.392       .  A
C828        H832   1.083       .  S
C833        S839   1.708   1_455  A
C833        C838   1.388       .  A
C833        C834   1.400       .  A
C834        C835   1.402       .  A
C834        H845   1.083       .  S
C835        C844   1.368       .  A
C835        C836   1.389       .  A
C836        S842   1.699       .  A
C836        C837   1.395       .  A
C837        C838   1.396       .  A
C837        H846   1.084       .  S
C838        C841   1.361   1_455  A
S839        C840   1.719       .  A
C840        C841   1.380       .  A
C841        H847   1.082       .  S
S842        C843   1.719       .  A
C843        C844   1.384       .  A
C844        H848   1.083       .  S
C849        S855   1.701       .  A
C849        C854   1.387       .  A
C849        C850   1.398       .  A
C850        C851   1.398   1_545  A
C850        H861   1.083   1_545  S
C851        C860   1.367       .  A
C851        C852   1.387   1_565  A
C852        S858   1.711   1_545  A
C852        C853   1.404       .  A
C853        C854   1.406       .  A
C853        H862   1.083       .  S
C854        C857   1.373       .  A
S855        C856   1.720       .  A
C856        C857   1.388       .  A
C857        H863   1.083       .  S
S858        C859   1.722       .  A
C859        C860   1.381       .  A
C860        H864   1.083       .  S
