geometry optimzed in LAMMPS
_audit_creation_date              2020-12-01 
_audit_creation_method            'lammps2cif' 
_symmetry_space_group_name_H-M    'P1' 
_symmetry_Int_Tables_number       1 
_symmetry_cell_setting            triclinic 
loop_ 
_symmetry_equiv_pos_as_xyz 
  x,y,z 
_cell_length_a                    28.94781965 
_cell_length_b                    20.51958923979741 
_cell_length_c                    25.31386766538947 
_cell_angle_alpha                 90.26057333470416 
_cell_angle_beta                  90.00048172254493 
_cell_angle_gamma                 85.16504140366342 
loop_ 
_atom_site_label 
_atom_site_type_symbol 
_atom_site_fract_x 
_atom_site_fract_y 
_atom_site_fract_z 
_atom_site_charge 
C1          C  0.68923077  0.27323477  0.24761783    -0.02600
C2          C  0.80472854  0.50886077  0.25064648    -0.02600
C3          C  0.30712069  0.22844225  0.24957560    -0.02600
C4          C  0.19433435  0.99134295  0.25019490    -0.02600
O5          O  0.04840173  0.43598559  0.45025873    -0.71900
O6          O  0.95021135  0.44636776  0.05116468    -0.72100
O7          O  0.95548839  0.44347648  0.44516645    -0.72000
O8          O  0.04345043  0.43788820  0.05675014    -0.72000
O9          O  0.04254535  0.04368584  0.05459988    -0.72000
O10         O  0.95256547  0.04994075  0.44497832    -0.72000
O11         O  0.94992022  0.05210359  0.05038866    -0.71900
O12         O  0.04513323  0.04206386  0.44835491    -0.72100
V13         V  0.99940489  0.44288272  0.50085534     1.35200
V14         V  0.99766693  0.04480224  0.99965204     1.35200
C15         C  0.06253800  0.98766949  0.43097748     0.77300
C16         C  0.93375724  0.00149719  0.06828788     0.77400
C17         C  0.93910459  0.49747461  0.42640939     0.77200
C18         C  0.05759517  0.48989198  0.07537492     0.77200
O19         O  0.53734297  0.32228893  0.04365252    -0.71900
O20         O  0.44080714  0.28797162  0.44685431    -0.72100
O21         O  0.44782311  0.29928947  0.05352854    -0.72000
O22         O  0.52945813  0.31331032  0.43811919    -0.72000
O23         O  0.55420289  0.21093431  0.44716849    -0.72000
O24         O  0.46342418  0.19391745  0.05403465    -0.72000
O25         O  0.46507060  0.18491809  0.44705464    -0.71900
O26         O  0.55309733  0.21783508  0.05286561    -0.72100
V27         V  0.48906675  0.30375640  0.99569151     1.35200
V28         V  0.50847067  0.20380763  0.50024837     1.35200
C29         C  0.56106971  0.27537517  0.06578686     0.77300
C30         C  0.43845414  0.23085787  0.42810972     0.77400
C31         C  0.44160014  0.24451102  0.07357994     0.77200
C32         C  0.55623137  0.26492437  0.42367989     0.77200
C33         C  0.09003195  0.53501225  0.34935331    -0.20500
C34         C  0.09638314  0.98622270  0.38703185    -0.07000
C35         C  0.13284228  0.93729204  0.38048349     0.13800
C36         C  0.16295336  0.94032091  0.33718409    -0.20500
C37         C  0.15963145  0.99222771  0.29955591    -0.07000
C38         C  0.11886928  0.53767303  0.30515228     0.13800
C39         C  0.10164318  0.58980039  0.26571076    -0.23900
H40         H  0.06069261  0.57124385  0.35335931     0.16100
H41         H  0.18775879  0.89884969  0.33292884     0.15100
C42         C  0.14063262  0.88167248  0.41915288    -0.23800
H43         H  0.09447984  0.63744759  0.28645193     0.05400
H44         H  0.06884683  0.57623778  0.24752935     0.08600
H45         H  0.12605775  0.59930117  0.23408784     0.08600
H46         H  0.11075138  0.85118976  0.41831390     0.08600
H47         H  0.14491167  0.90139257  0.45962304     0.08600
H48         H  0.17222181  0.84920743  0.40957432     0.05300
C49         C  0.12705822  0.03097621  0.11540997    -0.20500
C50         C  0.09196128  0.48849056  0.11897275    -0.07000
C51         C  0.09115301  0.44657914  0.16290714     0.13800
C52         C  0.12569374  0.44828530  0.20158873    -0.20500
C53         C  0.16095301  0.99278029  0.20024212    -0.07000
C54         C  0.16154584  0.03387601  0.15441859     0.13800
C55         C  0.19703570  0.08142686  0.14381077    -0.23900
H56         H  0.12761267  0.06235326  0.08108838     0.15100
H57         H  0.12452900  0.41438759  0.23418067     0.15100
C58         C  0.05352091  0.40134542  0.17245912    -0.23800
H59         H  0.19161559  0.10671268  0.10532452     0.05400
H60         H  0.23172027  0.05510855  0.14134771     0.08600
H61         H  0.19476891  0.12065901  0.17384807     0.08600
H62         H  0.02469020  0.40698589  0.14380832     0.08600
H63         H  0.06871590  0.34981947  0.17149927     0.08600
H64         H  0.03801165  0.41170733  0.21206383     0.05300
C65         C  0.28959760  0.34827632  0.28359328    -0.20500
C66         C  0.27994507  0.29837720  0.24732785    -0.07000
C67         C  0.24745430  0.31790404  0.20662323     0.13800
C68         C  0.22381908  0.38020652  0.20758230    -0.20500
C69         C  0.22672081  0.42508067  0.24969572    -0.07000
C70         C  0.26181765  0.40781540  0.28826194     0.13800
C71         C  0.27251988  0.45061408  0.33478034    -0.23900
H72         H  0.31855346  0.34129523  0.31032007     0.15100
H73         H  0.20331177  0.39320726  0.17320498     0.15100
C74         C  0.23559383  0.27503731  0.16114457    -0.23800
H75         H  0.27045622  0.42221043  0.37183282     0.05400
H76         H  0.24839722  0.49482670  0.33939614     0.08600
H77         H  0.30823288  0.46600289  0.33094918     0.08600
H78         H  0.20701837  0.29752768  0.13620798     0.08600
H79         H  0.22274693  0.22948334  0.17576505     0.08600
H80         H  0.26562463  0.26770558  0.13446725     0.05300
C81         C  0.29825268  0.10663725  0.24219106    -0.20500
C82         C  0.27590812  0.16946496  0.25251265    -0.07000
C83         C  0.22885854  0.17002009  0.27067598     0.13800
C84         C  0.20897217  0.11033902  0.27648449    -0.20500
C85         C  0.22640490  0.05095804  0.25276846    -0.07000
C86         C  0.27368985  0.05059431  0.23460790     0.13800
C87         C  0.29981951  0.99539849  0.20397374    -0.23900
H88         H  0.33485375  0.10275772  0.23278420     0.15100
H89         H  0.17864002  0.11259500  0.30025100     0.15100
C90         C  0.19580385  0.22832133  0.28670788    -0.23800
H91         H  0.32767620  0.01339542  0.17941228     0.05400
H92         H  0.27720180  0.97148002  0.17600164     0.08600
H93         H  0.31845243  0.95996499  0.23078238     0.08600
H94         H  0.16574540  0.23176119  0.25928938     0.08600
H95         H  0.20888370  0.27637919  0.28804904     0.08600
H96         H  0.18228735  0.22079260  0.32711930     0.05300
C97         C  0.38538355  0.18949599  0.29522225    -0.20500
C98         C  0.33918761  0.21821577  0.30067346    -0.07000
C99         C  0.32476578  0.23235270  0.35428448     0.13800
C100        C  0.35840519  0.23796779  0.39385912    -0.20500
C101        C  0.40510842  0.21869540  0.38525881    -0.07000
C102        C  0.41797246  0.18839055  0.33651125     0.13800
C103        C  0.46546139  0.15493806  0.32552769    -0.23900
H104        H  0.39702505  0.16767615  0.25804922     0.15100
H105        H  0.34794447  0.25554077  0.43290264     0.15100
C106        C  0.27512645  0.23984251  0.37269067    -0.23800
H107        H  0.48049084  0.17667128  0.28999949     0.05400
H108        H  0.46228802  0.10228534  0.31738644     0.08600
H109        H  0.49020254  0.15848762  0.35844353     0.08600
H110        H  0.25888702  0.19391335  0.36496905     0.08600
H111        H  0.25547393  0.28250752  0.35523348     0.08600
H112        H  0.27243736  0.24775397  0.41606343     0.05300
C113        C  0.37592657  0.19385868  0.11366198    -0.20500
C114        C  0.40844855  0.23972953  0.11769831    -0.07000
C115        C  0.40686064  0.28199596  0.16168494     0.13800
C116        C  0.37290766  0.27654911  0.20065433    -0.20500
C117        C  0.33950669  0.22946936  0.19857305    -0.07000
C118        C  0.34014014  0.19003959  0.15082971     0.13800
C119        C  0.30315074  0.14855982  0.13089563    -0.23900
H120        H  0.37652672  0.16329888  0.07847327     0.15100
H121        H  0.37345271  0.30867411  0.23464134     0.15100
C122        C  0.44234942  0.33094407  0.16924692    -0.23800
H123        H  0.31774804  0.09744443  0.12535019     0.05400
H124        H  0.29085197  0.16653646  0.09154916     0.08600
H125        H  0.27224734  0.14975660  0.15526509     0.08600
H126        H  0.43955985  0.36760732  0.13710301     0.08600
H127        H  0.47764187  0.30513227  0.16923493     0.08600
H128        H  0.43752916  0.35784831  0.20729447     0.05300
C129        C  0.88832472  0.99229332  0.28935397    -0.20500
C130        C  0.83976893  0.50335924  0.29844035    -0.07000
C131        C  0.82514806  0.50766629  0.35276061     0.13800
C132        C  0.85845623  0.50529123  0.39345643    -0.20500
C133        C  0.90583052  0.49916485  0.38257593    -0.07000
C134        C  0.92094320  0.99282564  0.32999695     0.13800
C135        C  0.97194966  0.98672417  0.31682738    -0.23900
H136        H  0.90211027  0.97995111  0.25078687     0.15100
H137        H  0.84749934  0.50915756  0.43440022     0.15100
C138        C  0.77507472  0.51507484  0.36994300    -0.23800
H139        H  0.97824979  0.98231710  0.27362275     0.05400
H140        H  0.98937972  0.44200895  0.33649761     0.08600
H141        H  0.98766767  0.03105100  0.33098570     0.08600
H142        H  0.75496080  0.47779582  0.35108301     0.08600
H143        H  0.75961721  0.06526488  0.36145126     0.08600
H144        H  0.77148425  0.50839200  0.41322349     0.05300
C145        C  0.86328087  0.46322724  0.11051298    -0.20500
C146        C  0.89736170  0.00730332  0.10947804    -0.07000
C147        C  0.89654177  0.05609391  0.14841576     0.13800
C148        C  0.86360567  0.05663529  0.18855403    -0.20500
C149        C  0.83130026  0.50920938  0.19498623    -0.07000
C150        C  0.82927440  0.46420103  0.15079402     0.13800
C151        C  0.79175818  0.41871459  0.14092437    -0.23900
H152        H  0.86311920  0.42775455  0.07864027     0.15100
H153        H  0.86920468  0.08914725  0.21962148     0.15100
C154        C  0.93290968  0.10490792  0.15130949    -0.23800
H155        H  0.79517177  0.39451660  0.10160174     0.05400
H156        H  0.75767675  0.94597102  0.13999665     0.08600
H157        H  0.79359345  0.37789294  0.16922970     0.08600
H158        H  0.96806561  0.07867381  0.15265608     0.08600
H159        H  0.92991608  0.63793600  0.11685157     0.08600
H160        H  0.92906186  0.13650857  0.18705141     0.05300
C161        C  0.76562775  0.19553095  0.23760585    -0.20500
C162        C  0.71781931  0.20349637  0.24909966    -0.07000
C163        C  0.69784520  0.14374085  0.26155692     0.13800
C164        C  0.72648010  0.08510311  0.26817737    -0.20500
C165        C  0.77470902  0.07861778  0.25761965    -0.07000
C166        C  0.79363339  0.14071744  0.25473371     0.13800
C167        C  0.83502007  0.15929839  0.28661418    -0.23900
H168        H  0.78300146  0.23420914  0.21953348     0.15100
H169        H  0.71020763  0.04564971  0.28593524     0.15100
C170        C  0.64629231  0.13718756  0.26293013    -0.23800
H171        H  0.82273988  0.19094303  0.32030407     0.05400
H172        H  0.85782564  0.18747673  0.26174194     0.08600
H173        H  0.85629502  0.11839810  0.30435227     0.08600
H174        H  0.62857663  0.16548425  0.23050248     0.08600
H175        H  0.63175791  0.15188558  0.30207945     0.08600
H176        H  0.63843012  0.08567830  0.25662413     0.05300
C177        C  0.76534373  0.33080813  0.27380413    -0.20500
C178        C  0.71852617  0.33541412  0.25733702    -0.07000
C179        C  0.69998259  0.40141917  0.25120905     0.13800
C180        C  0.72946508  0.44858944  0.23569245    -0.20500
C181        C  0.77588229  0.44626511  0.25329116    -0.07000
C182        C  0.79436140  0.38255910  0.27048380     0.13800
C183        C  0.84540111  0.36298710  0.27791572    -0.23900
H184        H  0.78020682  0.28723266  0.29239589     0.15100
H185        H  0.71395506  0.49016541  0.21423867     0.15100
C186        C  0.65794413  0.43035279  0.28151286    -0.23800
H187        H  0.85320073  0.30906954  0.27758951     0.05400
H188        H  0.85739071  0.37965530  0.31682918     0.08600
H189        H  0.86544763  0.38110678  0.24454563     0.08600
H190        H  0.63681816  0.39414216  0.29912564     0.08600
H191        H  0.63559377  0.46335468  0.25572772     0.08600
H192        H  0.66940924  0.45969558  0.31528326     0.05300
C193        C  0.60527309  0.27895090  0.28707739    -0.20500
C194        C  0.65415763  0.27319287  0.29545565    -0.07000
C195        C  0.66900398  0.26412598  0.34955959     0.13800
C196        C  0.63600733  0.25961223  0.38981883    -0.20500
C197        C  0.58882257  0.27104282  0.38002404    -0.07000
C198        C  0.57338973  0.28503991  0.32861898     0.13800
C199        C  0.52330794  0.30678434  0.31732420    -0.23900
H200        H  0.59030371  0.27690563  0.24847701     0.15100
H201        H  0.64708398  0.24970232  0.43014387     0.15100
C202        C  0.71881904  0.25849460  0.36755882    -0.23800
H203        H  0.51640351  0.31224778  0.27433217     0.05400
H204        H  0.51426554  0.35495706  0.33646074     0.08600
H205        H  0.50037334  0.27150256  0.33350637     0.08600
H206        H  0.73302678  0.30663104  0.36436736     0.08600
H207        H  0.73975514  0.21946901  0.34610891     0.08600
H208        H  0.72227259  0.24537024  0.40998258     0.05300
C209        C  0.62967555  0.33397588  0.18328491    -0.20500
C210        C  0.66403117  0.28126972  0.19108565    -0.07000
C211        C  0.67062259  0.23799590  0.14609832     0.13800
C212        C  0.63655454  0.23907159  0.10616087    -0.20500
C213        C  0.59805144  0.28514800  0.10531132    -0.07000
C214        C  0.59598858  0.33566874  0.14329118     0.13800
C215        C  0.55718800  0.38960974  0.14725594    -0.23900
H216        H  0.62281959  0.36945567  0.21331290     0.15100
H217        H  0.64022262  0.20316146  0.07452189     0.15100
C218        C  0.71435239  0.19509520  0.13417236    -0.23800
H219        H  0.54040040  0.38765983  0.18662313     0.05400
H220        H  0.57177908  0.43769869  0.14335775     0.08600
H221        H  0.52951746  0.38727554  0.11768509     0.08600
H222        H  0.71657727  0.14980692  0.15784597     0.08600
H223        H  0.74491565  0.22362876  0.13894485     0.08600
H224        H  0.71557589  0.17812611  0.09240434     0.05300
C225        C  0.68924600  0.27316811  0.74763694    -0.02600
C226        C  0.80472411  0.50880733  0.75066114    -0.02600
C227        C  0.30712051  0.22842071  0.74957273    -0.02600
C228        C  0.19433685  0.99131355  0.75019366    -0.02600
O229        O  0.04841074  0.43599945  0.95024819    -0.71900
O230        O  0.95020685  0.44636742  0.55118725    -0.72100
O231        O  0.95550320  0.44347600  0.94514614    -0.72000
O232        O  0.04344187  0.43787672  0.55676748    -0.72000
O233        O  0.04254994  0.04367096  0.55461039    -0.72000
O234        O  0.95256837  0.04993695  0.94495748    -0.72000
O235        O  0.94992387  0.05210533  0.55041025    -0.71900
O236        O  0.04513467  0.04208171  0.94834499    -0.72100
V237        V  0.99941347  0.44288964  0.00083811     1.35200
V238        V  0.99766823  0.04479482  0.49966795     1.35200
C239        C  0.06254656  0.98768846  0.93097385     0.77300
C240        C  0.93375310  0.00150322  0.56830860     0.77400
C241        C  0.93911873  0.49747084  0.92638565     0.77200
C242        C  0.05758793  0.48988129  0.57539005     0.77200
O243        O  0.53735504  0.32226985  0.54368910    -0.71900
O244        O  0.44080466  0.28794984  0.94682317    -0.72100
O245        O  0.44783573  0.29927944  0.55355823    -0.72000
O246        O  0.52945508  0.31327986  0.93808691    -0.72000
O247        O  0.55418428  0.21089936  0.94714960    -0.72000
O248        O  0.46342146  0.19390421  0.55402664    -0.72000
O249        O  0.46505474  0.18489153  0.94706411    -0.71900
O250        O  0.55308911  0.21780962  0.55288765    -0.72100
V251        V  0.48907464  0.30376306  0.49572308     1.35200
V252        V  0.50846427  0.20380239  0.00024286     1.35200
C253        C  0.56106837  0.27534051  0.56582196     0.77300
C254        C  0.43844677  0.23082760  0.92809962     0.77400
C255        C  0.44160608  0.24449394  0.57359029     0.77200
C256        C  0.55622116  0.26488236  0.92365508     0.77200
C257        C  0.09003923  0.53501540  0.84934216    -0.20500
C258        C  0.09639607  0.98623745  0.88703672    -0.07000
C259        C  0.13284035  0.93728632  0.88048303     0.13800
C260        C  0.16294095  0.94029017  0.83717225    -0.20500
C261        C  0.15963025  0.99220363  0.79954940    -0.07000
C262        C  0.11887315  0.53766009  0.80513731     0.13800
C263        C  0.10164376  0.58977615  0.76568764    -0.23900
H264        H  0.06070249  0.57125009  0.85334599     0.16100
H265        H  0.18772856  0.89880084  0.83290550     0.15100
C266        C  0.14062848  0.88167348  0.91916002    -0.23800
H267        H  0.09448624  0.63743053  0.78641940     0.05400
H268        H  0.06884344  0.57621129  0.74751729     0.08600
H269        H  0.12605367  0.59926435  0.73405673     0.08600
H270        H  0.11073913  0.85120566  0.91834160     0.08600
H271        H  0.14492716  0.90140181  0.95962413     0.08600
H272        H  0.17220681  0.84919011  0.90957310     0.05300
C273        C  0.12706186  0.03094301  0.61541388    -0.20500
C274        C  0.09195021  0.48848058  0.61898721    -0.07000
C275        C  0.09113736  0.44657093  0.66291978     0.13800
C276        C  0.12569545  0.44824502  0.70158501    -0.20500
C277        C  0.16095763  0.99273894  0.70024070    -0.07000
C278        C  0.16155414  0.03383032  0.65441657     0.13800
C279        C  0.19705055  0.08136976  0.64380497    -0.23900
H280        H  0.12761634  0.06232144  0.58109403     0.15100
H281        H  0.12453095  0.41434474  0.73417604     0.15100
C282        C  0.05347189  0.40139479  0.67248650    -0.23800
H283        H  0.19164003  0.10664034  0.60531138     0.05400
H284        H  0.23173464  0.05504617  0.64135728     0.08600
H285        H  0.19477918  0.12061463  0.67383157     0.08600
H286        H  0.02460331  0.40715622  0.64388858     0.08600
H287        H  0.06861599  0.34984700  0.67144293     0.08600
H288        H  0.03802322  0.41171195  0.71212729     0.05300
C289        C  0.28959556  0.34825274  0.78359932    -0.20500
C290        C  0.27994675  0.29835667  0.74732832    -0.07000
C291        C  0.24745802  0.31788562  0.70662315     0.13800
C292        C  0.22383324  0.38019262  0.70757601    -0.20500
C293        C  0.22672536  0.42505789  0.74969549    -0.07000
C294        C  0.26181021  0.40778581  0.78827410     0.13800
C295        C  0.27249666  0.45057221  0.83480647    -0.23900
H296        H  0.31855159  0.34127314  0.81032706     0.15100
H297        H  0.20333895  0.39320167  0.67319055     0.15100
C298        C  0.23559176  0.27501946  0.66114663    -0.23800
H299        H  0.27041056  0.42216226  0.87185327     0.05400
H300        H  0.24837937  0.49479272  0.83941011     0.08600
H301        H  0.30821460  0.46595060  0.83100145     0.08600
H302        H  0.20701528  0.29751282  0.63621287     0.08600
H303        H  0.22274271  0.22946760  0.67576864     0.08600
H304        H  0.26562092  0.26767980  0.63446718     0.05300
C305        C  0.29825628  0.10661272  0.74218617    -0.20500
C306        C  0.27591110  0.16944101  0.75250570    -0.07000
C307        C  0.22886202  0.16999828  0.77066470     0.13800
C308        C  0.20896873  0.11032086  0.77645926    -0.20500
C309        C  0.22640871  0.05092990  0.75276416    -0.07000
C310        C  0.27369828  0.05056268  0.73461488     0.13800
C311        C  0.29984120  0.99535456  0.70400614    -0.23900
H312        H  0.33485766  0.10273424  0.73278189     0.15100
H313        H  0.17863052  0.11258506  0.80021348     0.15100
C314        C  0.19581634  0.22830374  0.78670937    -0.23800
H315        H  0.32770933  0.01334224  0.67945556     0.05400
H316        H  0.27723628  0.97142947  0.67602408     0.08600
H317        H  0.31846260  0.95993074  0.73083205     0.08600
H318        H  0.16576645  0.23177789  0.75927922     0.08600
H319        H  0.20890754  0.27635219  0.78808023     0.08600
H320        H  0.18228578  0.22075521  0.82711165     0.05300
C321        C  0.38537238  0.18944954  0.79522171    -0.20500
C322        C  0.33918277  0.21819139  0.80067138    -0.07000
C323        C  0.32476221  0.23233544  0.85428217     0.13800
C324        C  0.35840219  0.23794632  0.89385419    -0.20500
C325        C  0.40510076  0.21865294  0.88525487    -0.07000
C326        C  0.41795934  0.18833205  0.83651240     0.13800
C327        C  0.46544253  0.15486193  0.82553245    -0.23900
H328        H  0.39701073  0.16762555  0.75804952     0.15100
H329        H  0.34794550  0.25553272  0.93289512     0.15100
C330        C  0.27512551  0.23983326  0.87269574    -0.23800
H331        H  0.48048060  0.17659531  0.79000981     0.05400
H332        H  0.46225893  0.10221350  0.81738280     0.08600
H333        H  0.49017966  0.15839493  0.85845456     0.08600
H334        H  0.25887780  0.19391395  0.86496325     0.08600
H335        H  0.25547843  0.28251543  0.85525800     0.08600
H336        H  0.27244252  0.24772305  0.91607146     0.05300
C337        C  0.37593640  0.19383307  0.61366798    -0.20500
C338        C  0.40845726  0.23970384  0.61770803    -0.07000
C339        C  0.40686322  0.28197530  0.66169194     0.13800
C340        C  0.37290745  0.27652991  0.70065717    -0.20500
C341        C  0.33950794  0.22944977  0.69857243    -0.07000
C342        C  0.34014612  0.19001679  0.65083043     0.13800
C343        C  0.30316034  0.14853101  0.63089660    -0.23900
H344        H  0.37653921  0.16327273  0.57847840     0.15100
H345        H  0.37344612  0.30866047  0.73464100     0.15100
C346        C  0.44233906  0.33094279  0.66924773    -0.23800
H347        H  0.31775670  0.09740996  0.62537812     0.05400
H348        H  0.29087456  0.16648671  0.59153916     0.08600
H349        H  0.27224894  0.14974654  0.65525522     0.08600
H350        H  0.43953398  0.36760540  0.63710370     0.08600
H351        H  0.47763746  0.30514960  0.66923098     0.08600
H352        H  0.43751593  0.35784700  0.70729469     0.05300
C353        C  0.88832302  0.99227136  0.78934185    -0.20500
C354        C  0.83976950  0.50330472  0.79844352    -0.07000
C355        C  0.82515456  0.50758305  0.85276622     0.13800
C356        C  0.85846943  0.50521627  0.89345363    -0.20500
C357        C  0.90584228  0.49914965  0.88255805    -0.07000
C358        C  0.92094789  0.99282551  0.82997691     0.13800
C359        C  0.97195318  0.98677586  0.81679511    -0.23900
H360        H  0.90210328  0.97995503  0.75076776     0.15100
H361        H  0.84751964  0.50904921  0.93439939     0.15100
C362        C  0.77508182  0.51494864  0.86996075    -0.23800
H363        H  0.97824720  0.98234798  0.77359041     0.05400
H364        H  0.98942676  0.44213499  0.83647502     0.08600
H365        H  0.98764767  0.03113293  0.83093041     0.08600
H366        H  0.75497431  0.47767206  0.85108826     0.08600
H367        H  0.75960548  0.06513051  0.86151050     0.08600
H368        H  0.77150151  0.50822807  0.91323809     0.05300
C369        C  0.86330316  0.46317759  0.61055347    -0.20500
C370        C  0.89734576  0.00731244  0.60949039    -0.07000
C371        C  0.89648945  0.05613939  0.64840241     0.13800
C372        C  0.86356546  0.05665145  0.68855354    -0.20500
C373        C  0.83128512  0.50918322  0.69499738    -0.07000
C374        C  0.82928063  0.46415754  0.65081558     0.13800
C375        C  0.79177195  0.41866013  0.64093491    -0.23900
H376        H  0.86317113  0.42766990  0.57870334     0.15100
H377        H  0.86915637  0.08918107  0.71961554     0.15100
C378        C  0.93280514  0.10503273  0.65125118    -0.23800
H379        H  0.79520214  0.39445444  0.60161683     0.05400
H380        H  0.75766199  0.94597047  0.64000002     0.08600
H381        H  0.79360000  0.37784443  0.66924656     0.08600
H382        H  0.96798276  0.07886785  0.65260925     0.08600
H383        H  0.92973881  0.63803809  0.61675314     0.08600
H384        H  0.92892903  0.13667231  0.68696923     0.05300
C385        C  0.76563792  0.19546980  0.73764320    -0.20500
C386        C  0.71782971  0.20343418  0.74912925    -0.07000
C387        C  0.69785210  0.14368443  0.76160806     0.13800
C388        C  0.72648309  0.08504826  0.76823299    -0.20500
C389        C  0.77470649  0.07856420  0.75766382    -0.07000
C390        C  0.79363682  0.14065871  0.75478351     0.13800
C391        C  0.83499981  0.15923338  0.78671013    -0.23900
H392        H  0.78301367  0.23414747  0.71957101     0.15100
H393        H  0.71020985  0.04558856  0.78598486     0.15100
C394        C  0.64629997  0.13712360  0.76296721    -0.23800
H395        H  0.82268954  0.19079981  0.82043385     0.05400
H396        H  0.85779323  0.18748645  0.76188424     0.08600
H397        H  0.85630344  0.11832673  0.80439742     0.08600
H398        H  0.62858443  0.16544576  0.73055369     0.08600
H399        H  0.63176087  0.15178291  0.80212321     0.08600
H400        H  0.63844350  0.08561914  0.75662088     0.05300
C401        C  0.76535003  0.33075157  0.77384506    -0.20500
C402        C  0.71853717  0.33534978  0.75736487    -0.07000
C403        C  0.69999148  0.40135246  0.75122224     0.13800
C404        C  0.72947227  0.44851871  0.73569715    -0.20500
C405        C  0.77588455  0.44620603  0.75330310    -0.07000
C406        C  0.79436443  0.38250595  0.77051430     0.13800
C407        C  0.84540359  0.36294387  0.77795298    -0.23900
H408        H  0.78021462  0.28717664  0.79243831     0.15100
H409        H  0.71395937  0.49010438  0.71424581     0.15100
C410        C  0.65796729  0.43028812  0.78154868    -0.23800
H411        H  0.85320727  0.30902735  0.77763061     0.05400
H412        H  0.85738862  0.37961851  0.81686604     0.08600
H413        H  0.86545083  0.38106471  0.74458364     0.08600
H414        H  0.63682872  0.39407809  0.79913935     0.08600
H415        H  0.63562275  0.46332331  0.75578288     0.08600
H416        H  0.66944924  0.45959307  0.81533351     0.05300
C417        C  0.60529077  0.27888420  0.78706970    -0.20500
C418        C  0.65417101  0.27312019  0.79546433    -0.07000
C419        C  0.66900932  0.26401696  0.84956782     0.13800
C420        C  0.63600218  0.25952249  0.88981618    -0.20500
C421        C  0.58882075  0.27097932  0.88000825    -0.07000
C422        C  0.57339822  0.28496410  0.82859762     0.13800
C423        C  0.52331674  0.30668164  0.81727832    -0.23900
H424        H  0.59033127  0.27684866  0.74846459     0.15100
H425        H  0.64706887  0.24960093  0.93014483     0.15100
C426        C  0.71882437  0.25831605  0.86757409    -0.23800
H427        H  0.51641672  0.31208023  0.77428057     0.05400
H428        H  0.51426734  0.35487973  0.83636998     0.08600
H429        H  0.50038398  0.27141676  0.83349090     0.08600
H430        H  0.73306246  0.30643333  0.86440620     0.08600
H431        H  0.73974642  0.21928366  0.84611912     0.08600
H432        H  0.72226413  0.24515970  0.90999319     0.05300
C433        C  0.62971204  0.33392863  0.68328924    -0.20500
C434        C  0.66404906  0.28119830  0.69110324    -0.07000
C435        C  0.67060569  0.23787916  0.64613825     0.13800
C436        C  0.63653115  0.23897262  0.60620919    -0.20500
C437        C  0.59804642  0.28507981  0.60535405    -0.07000
C438        C  0.59600402  0.33561148  0.64332071     0.13800
C439        C  0.55719983  0.38954828  0.64729230    -0.23900
H440        H  0.62287391  0.36943342  0.71330540     0.15100
H441        H  0.64017584  0.20304426  0.57458213     0.15100
C442        C  0.71429599  0.19487723  0.63423338    -0.23800
H443        H  0.54047439  0.38767626  0.68670094     0.05400
H444        H  0.57177433  0.43763586  0.64328597     0.08600
H445        H  0.52947879  0.38712986  0.61779627     0.08600
H446        H  0.71648138  0.14961843  0.65794173     0.08600
H447        H  0.74489459  0.22334714  0.63897160     0.08600
H448        H  0.71549549  0.17785277  0.59247997     0.05300
C449        C  0.68925236  0.77312845  0.24774542    -0.02600
C450        C  0.80458576  0.00888223  0.25044531    -0.02600
C451        C  0.30701733  0.72851292  0.24968094    -0.02600
C452        C  0.19439785  0.49128052  0.25042166    -0.02600
O453        O  0.04828425  0.93603729  0.44997028    -0.71900
O454        O  0.95013233  0.94636767  0.05089396    -0.72100
O455        O  0.95537660  0.94368098  0.44485071    -0.72000
O456        O  0.04336950  0.93786126  0.05647845    -0.72000
O457        O  0.04255940  0.54372072  0.05487332    -0.72000
O458        O  0.95267365  0.54973843  0.44513659    -0.72000
O459        O  0.94993241  0.55211322  0.05051442    -0.71900
O460        O  0.04524499  0.54201511  0.44864252    -0.72100
V461        V  0.99930494  0.94293726  0.50056818     1.35200
V462        V  0.99773138  0.54475313  0.99986127     1.35200
C463        C  0.06266936  0.48762662  0.43128621     0.77300
C464        C  0.93378207  0.50152632  0.06845358     0.77400
C465        C  0.93899495  0.99773076  0.42616210     0.77200
C466        C  0.05756381  0.98985180  0.07509213     0.77200
O467        O  0.53737212  0.82207991  0.04371000    -0.71900
O468        O  0.44077220  0.78796757  0.44692042    -0.72100
O469        O  0.44779304  0.79932777  0.05358657    -0.72000
O470        O  0.52943020  0.81309631  0.43815901    -0.72000
O471        O  0.55414894  0.71072653  0.44731166    -0.72000
O472        O  0.46316307  0.69391576  0.05402338    -0.72000
O473        O  0.46499703  0.68489438  0.44704585    -0.71900
O474        O  0.55289900  0.71760088  0.05305719    -0.72100
V475        V  0.48905592  0.80366257  0.99575621     1.35200
V476        V  0.50833101  0.70368797  0.50032813     1.35200
C477        C  0.56098016  0.77511452  0.06593094     0.77300
C478        C  0.43841589  0.73088395  0.42812324     0.77400
C479        C  0.44141247  0.74456990  0.07357432     0.77200
C480        C  0.55618690  0.76468011  0.42375836     0.77200
C481        C  0.08996600  0.03511952  0.34908878    -0.20500
C482        C  0.09653328  0.48621191  0.38736168    -0.07000
C483        C  0.13311462  0.43744564  0.38092780     0.13800
C484        C  0.16319442  0.44044380  0.33758762    -0.20500
C485        C  0.15973175  0.49219545  0.29982606    -0.07000
C486        C  0.11882165  0.03777455  0.30490092     0.13800
C487        C  0.10164396  0.08988589  0.26543255    -0.23900
H488        H  0.06066948  0.07141841  0.35312257     0.16100
H489        H  0.18811571  0.39909264  0.33343685     0.15100
C490        C  0.14109156  0.38208328  0.41980404    -0.23800
H491        H  0.09436800  0.13751615  0.28616381     0.05400
H492        H  0.06892458  0.07623644  0.24712157     0.08600
H493        H  0.12613466  0.09944852  0.23390452     0.08600
H494        H  0.11130869  0.35141548  0.41913852     0.08600
H495        H  0.14534104  0.40207925  0.46019030     0.08600
H496        H  0.17275824  0.34973980  0.41030615     0.05300
C497        C  0.12710420  0.53091884  0.11566692    -0.20500
C498        C  0.09195046  0.98846770  0.11868057    -0.07000
C499        C  0.09112341  0.94661770  0.16264478     0.13800
C500        C  0.12568130  0.94830490  0.20130464    -0.20500
C501        C  0.16098451  0.49272848  0.20050304    -0.07000
C502        C  0.16161594  0.53375394  0.15464224     0.13800
C503        C  0.19717850  0.58115543  0.14394969    -0.23900
H504        H  0.12768222  0.56225935  0.08132274     0.15100
H505        H  0.12451523  0.91440285  0.23389126     0.15100
C506        C  0.05339695  0.90157318  0.17231178    -0.23800
H507        H  0.19179888  0.60636546  0.10542546     0.05400
H508        H  0.23182888  0.55473460  0.14151190     0.08600
H509        H  0.19495324  0.62044827  0.17393261     0.08600
H510        H  0.02460075  0.90715698  0.14361383     0.08600
H511        H  0.06850021  0.84999984  0.17154864     0.08600
H512        H  0.03786452  0.91221042  0.21186760     0.05300
C513        C  0.28942080  0.84834760  0.28365040    -0.20500
C514        C  0.27979749  0.79841101  0.24740629    -0.07000
C515        C  0.24729730  0.81787141  0.20668548     0.13800
C516        C  0.22377084  0.88023861  0.20748530    -0.20500
C517        C  0.22664769  0.92515930  0.24955063    -0.07000
C518        C  0.26164263  0.90789644  0.28823017     0.13800
C519        C  0.27221570  0.95069783  0.33479054    -0.23900
H520        H  0.31833415  0.84138977  0.31043435     0.15100
H521        H  0.20334248  0.89323490  0.17304559     0.15100
C522        C  0.23530579  0.77489186  0.16133938    -0.23800
H523        H  0.27003480  0.92229971  0.37183062     0.05400
H524        H  0.24808957  0.99492032  0.33932229     0.08600
H525        H  0.30794116  0.96607540  0.33108871     0.08600
H526        H  0.20662213  0.79729354  0.13651019     0.08600
H527        H  0.22253135  0.72935202  0.17607920     0.08600
H528        H  0.26524454  0.76757467  0.13453301     0.05300
C529        C  0.29825035  0.60669107  0.24240204    -0.20500
C530        C  0.27586095  0.66949679  0.25269346    -0.07000
C531        C  0.22882445  0.67000657  0.27087973     0.13800
C532        C  0.20896564  0.61030714  0.27666630    -0.20500
C533        C  0.22643744  0.55093202  0.25296466    -0.07000
C534        C  0.27372595  0.55061672  0.23482039     0.13800
C535        C  0.29991143  0.49545982  0.20419887    -0.23900
H536        H  0.33484961  0.60285953  0.23297869     0.15100
H537        H  0.17863832  0.61254351  0.30042708     0.15100
C538        C  0.19575828  0.72827141  0.28697344    -0.23800
H539        H  0.32762181  0.51356679  0.17947739     0.05400
H540        H  0.27731433  0.47131643  0.17635277     0.08600
H541        H  0.31872051  0.46020981  0.23102028     0.08600
H542        H  0.16562004  0.73161087  0.25967007     0.08600
H543        H  0.20878116  0.77637236  0.28819220     0.08600
H544        H  0.18236446  0.72076008  0.32744233     0.05300
C545        C  0.38533063  0.68968250  0.29523240    -0.20500
C546        C  0.33912496  0.71834305  0.30074379    -0.07000
C547        C  0.32473120  0.73243042  0.35437039     0.13800
C548        C  0.35838637  0.73800681  0.39392470    -0.20500
C549        C  0.40508701  0.71880666  0.38526163    -0.07000
C550        C  0.41795672  0.68863533  0.33647023     0.13800
C551        C  0.46549547  0.65541676  0.32537154    -0.23900
H552        H  0.39695848  0.66789440  0.25804637     0.15100
H553        H  0.34794616  0.75549743  0.43299291     0.15100
C554        C  0.27510661  0.73990218  0.37282524    -0.23800
H555        H  0.48041202  0.67728177  0.28983132     0.05400
H556        H  0.46244341  0.60274778  0.31718732     0.08600
H557        H  0.49026162  0.65904399  0.35825760     0.08600
H558        H  0.25888586  0.69394724  0.36515212     0.08600
H559        H  0.25542654  0.78253806  0.35535773     0.08600
H560        H  0.27244090  0.74785154  0.41619486     0.05300
C561        C  0.37562791  0.69408197  0.11361563    -0.20500
C562        C  0.40819578  0.73989494  0.11765310    -0.07000
C563        C  0.40663229  0.78215981  0.16164552     0.13800
C564        C  0.37273916  0.77665718  0.20067216    -0.20500
C565        C  0.33935367  0.72955628  0.19863849    -0.07000
C566        C  0.33991819  0.69017899  0.15087330     0.13800
C567        C  0.30292987  0.64863917  0.13103972    -0.23900
H568        H  0.37616431  0.66357974  0.07839707     0.15100
H569        H  0.37331102  0.80877287  0.23466634     0.15100
C570        C  0.44205710  0.83121237  0.16913609    -0.23800
H571        H  0.31756536  0.59755870  0.12539985     0.05400
H572        H  0.29049665  0.66664911  0.09175399     0.08600
H573        H  0.27210820  0.64972609  0.15552234     0.08600
H574        H  0.43916822  0.86787163  0.13699015     0.08600
H575        H  0.47737526  0.80548786  0.16907169     0.08600
H576        H  0.43725136  0.85812001  0.20718424     0.05300
C577        C  0.88847591  0.49200964  0.28959335    -0.20500
C578        C  0.83961627  0.00353124  0.29822534    -0.07000
C579        C  0.82499704  0.00791074  0.35254485     0.13800
C580        C  0.85832317  0.00564397  0.39322633    -0.20500
C581        C  0.90570369  0.99954842  0.38232509    -0.07000
C582        C  0.92108535  0.49238079  0.33026014     0.13800
C583        C  0.97210076  0.48598129  0.31714770    -0.23900
H584        H  0.90226177  0.47966882  0.25102118     0.15100
H585        H  0.84737948  0.00950891  0.43416705     0.15100
C586        C  0.77491128  0.01518496  0.36973698    -0.23800
H587        H  0.97842400  0.48168993  0.27394264     0.05400
H588        H  0.98939884  0.94292940  0.33625635     0.08600
H589        H  0.98797064  0.53012200  0.33143836     0.08600
H590        H  0.75488495  0.97770426  0.35101935     0.08600
H591        H  0.75992109  0.56527587  0.36183821     0.08600
H592        H  0.77134506  0.00873030  0.41304640     0.05300
C593        C  0.86339264  0.96294831  0.11048353    -0.20500
C594        C  0.89737040  0.50739655  0.10960762    -0.07000
C595        C  0.89666798  0.55607340  0.14863540     0.13800
C596        C  0.86384083  0.55649267  0.18885531    -0.20500
C597        C  0.83118160  0.00917185  0.19477856    -0.07000
C598        C  0.82936478  0.96389466  0.15074399     0.13800
C599        C  0.79205130  0.91804041  0.14100227    -0.23900
H600        H  0.86335128  0.92733176  0.07871072     0.15100
H601        H  0.86959862  0.58879231  0.22007622     0.15100
C602        C  0.93301467  0.60491109  0.15147304    -0.23800
H603        H  0.79561696  0.89359066  0.10179024     0.05400
H604        H  0.75747192  0.44689774  0.14010554     0.08600
H605        H  0.79398873  0.87740118  0.16947623     0.08600
H606        H  0.96818380  0.57871666  0.15272229     0.08600
H607        H  0.92990050  0.13790255  0.11666740     0.08600
H608        H  0.92920698  0.63648343  0.18723534     0.05300
C609        C  0.76573109  0.69552748  0.23775967    -0.20500
C610        C  0.71792007  0.70343818  0.24931000    -0.07000
C611        C  0.69802490  0.64368476  0.26197649     0.13800
C612        C  0.72671179  0.58511877  0.26864170    -0.20500
C613        C  0.77489457  0.57862495  0.25787381    -0.07000
C614        C  0.79379953  0.64072819  0.25484430     0.13800
C615        C  0.83524488  0.65931911  0.28660414    -0.23900
H616        H  0.78306046  0.73425571  0.21968300     0.15100
H617        H  0.71050373  0.54566378  0.28650410     0.15100
C618        C  0.64648969  0.63700774  0.26345834    -0.23800
H619        H  0.82304141  0.69120527  0.32018784     0.05400
H620        H  0.85810520  0.68726112  0.26160897     0.08600
H621        H  0.85639422  0.61839941  0.30450899     0.08600
H622        H  0.62869964  0.66522161  0.23103631     0.08600
H623        H  0.63198958  0.65171267  0.30262314     0.08600
H624        H  0.63868347  0.58546534  0.25720313     0.05300
C625        C  0.76529380  0.83084299  0.27398833    -0.20500
C626        C  0.71851458  0.83534585  0.25739717    -0.07000
C627        C  0.69994760  0.90129138  0.25106939     0.13800
C628        C  0.72942991  0.94841451  0.23544188    -0.20500
C629        C  0.77579481  0.94624312  0.25319837    -0.07000
C630        C  0.79427606  0.88263505  0.27064754     0.13800
C631        C  0.84531005  0.86314909  0.27826215    -0.23900
H632        H  0.78015770  0.78729055  0.29262551     0.15100
H633        H  0.71394839  0.98988305  0.21383983     0.15100
C634        C  0.65804880  0.93028672  0.28157684    -0.23800
H635        H  0.85314174  0.80923582  0.27813245     0.05400
H636        H  0.85722235  0.88002691  0.31714522     0.08600
H637        H  0.86541182  0.88111303  0.24487346     0.08600
H638        H  0.63682525  0.89410220  0.29907075     0.08600
H639        H  0.63572996  0.96352818  0.25594909     0.08600
H640        H  0.66968090  0.95933964  0.31543407     0.05300
C641        C  0.60528309  0.77880415  0.28718082    -0.20500
C642        C  0.65416429  0.77311069  0.29557888    -0.07000
C643        C  0.66898454  0.76406782  0.34969898     0.13800
C644        C  0.63597140  0.75938682  0.38991844    -0.20500
C645        C  0.58878954  0.77076749  0.38010306    -0.07000
C646        C  0.57338491  0.78489096  0.32870234     0.13800
C647        C  0.52334450  0.80687790  0.31740053    -0.23900
H648        H  0.59031691  0.77674861  0.24857310     0.15100
H649        H  0.64703311  0.74944758  0.43024791     0.15100
C650        C  0.71878085  0.75864205  0.36775626    -0.23800
H651        H  0.51644340  0.81230089  0.27440239     0.05400
H652        H  0.51444192  0.85511691  0.33648462     0.08600
H653        H  0.50029700  0.77179760  0.33364560     0.08600
H654        H  0.73288997  0.80684658  0.36455621     0.08600
H655        H  0.73980987  0.71967481  0.34634303     0.08600
H656        H  0.72222149  0.74556110  0.41019088     0.05300
C657        C  0.62965704  0.83378851  0.18337379    -0.20500
C658        C  0.66401346  0.78107299  0.19121305    -0.07000
C659        C  0.67053967  0.73768712  0.14629079     0.13800
C660        C  0.63644143  0.73870870  0.10637628    -0.20500
C661        C  0.59795224  0.78481447  0.10549536    -0.07000
C662        C  0.59590573  0.83536614  0.14344528     0.13800
C663        C  0.55703718  0.88920379  0.14745931    -0.23900
H664        H  0.62284576  0.86936848  0.21334484     0.15100
H665        H  0.64008036  0.70274323  0.07477633     0.15100
C666        C  0.71424606  0.69472304  0.13440602    -0.23800
H667        H  0.54035949  0.88728817  0.18689072     0.05400
H668        H  0.57152881  0.93734032  0.14342003     0.08600
H669        H  0.52929097  0.88667998  0.11799811     0.08600
H670        H  0.71646467  0.64950863  0.15817281     0.08600
H671        H  0.74482401  0.72324411  0.13910674     0.08600
H672        H  0.71544083  0.67764023  0.09266848     0.05300
C673        C  0.68926372  0.77305552  0.74776453    -0.02600
C674        C  0.80457746  0.00883603  0.75046022    -0.02600
C675        C  0.30702127  0.72849328  0.74967938    -0.02600
C676        C  0.19440242  0.49125253  0.75041420    -0.02600
O677        O  0.04829428  0.93605459  0.94996260    -0.71900
O678        O  0.95012592  0.94637181  0.55091537    -0.72100
O679        O  0.95539203  0.94367594  0.94483124    -0.72000
O680        O  0.04336233  0.93784689  0.55649364    -0.72000
O681        O  0.04255842  0.54370958  0.55488587    -0.72000
O682        O  0.95268083  0.54973886  0.94511304    -0.72000
O683        O  0.94993495  0.55211103  0.55053987    -0.71900
O684        O  0.04524858  0.54202927  0.94862810    -0.72100
V685        V  0.99931385  0.94294343  0.00055225     1.35200
V686        V  0.99772911  0.54474551  0.49987952     1.35200
C687        C  0.06267575  0.48764086  0.93127553     0.77300
C688        C  0.93378104  0.50152662  0.56847926     0.77400
C689        C  0.93900703  0.99772163  0.92614024     0.77200
C690        C  0.05756180  0.98983595  0.57510441     0.77200
O691        O  0.53736955  0.82207090  0.54374143    -0.71900
O692        O  0.44077823  0.78795763  0.94690025    -0.72100
O693        O  0.44779240  0.79931356  0.55360278    -0.72000
O694        O  0.52943890  0.81306025  0.93813651    -0.72000
O695        O  0.55413938  0.71068543  0.94730760    -0.72000
O696        O  0.46316288  0.69390148  0.55401561    -0.72000
O697        O  0.46498812  0.68487867  0.94705441    -0.71900
O698        O  0.55289301  0.71758810  0.55306662    -0.72100
V699        V  0.48905240  0.80366864  0.49577784     1.35200
V700        V  0.50832747  0.70368088  0.00032931     1.35200
C701        C  0.56097333  0.77509504  0.56595718     0.77300
C702        C  0.43841739  0.73086938  0.92811613     0.77400
C703        C  0.44141250  0.74455012  0.57357751     0.77200
C704        C  0.55618759  0.76462986  0.92374662     0.77200
C705        C  0.08998136  0.03513102  0.84909188    -0.20500
C706        C  0.09653965  0.48622029  0.88735416    -0.07000
C707        C  0.13310885  0.43743728  0.88091629     0.13800
C708        C  0.16318274  0.44041741  0.83757002    -0.20500
C709        C  0.15973173  0.49217447  0.79981376    -0.07000
C710        C  0.11882778  0.03776251  0.80489544     0.13800
C711        C  0.10164154  0.08985793  0.76541743    -0.23900
H712        H  0.06068974  0.07143580  0.85312546     0.16100
H713        H  0.18808857  0.39904964  0.83340932     0.15100
C714        C  0.14107777  0.38207273  0.91979213    -0.23800
H715        H  0.09437380  0.13749785  0.78613626     0.05400
H716        H  0.06891538  0.07620370  0.74712536     0.08600
H717        H  0.12612306  0.09940505  0.73387637     0.08600
H718        H  0.11128756  0.35141835  0.91913157     0.08600
H719        H  0.14533727  0.40206613  0.96017748     0.08600
H720        H  0.17273648  0.34971542  0.91028913     0.05300
C721        C  0.12710106  0.53089296  0.61567088    -0.20500
C722        C  0.09194692  0.98844863  0.61869169    -0.07000
C723        C  0.09111673  0.94659729  0.66265326     0.13800
C724        C  0.12568691  0.94825938  0.70130183    -0.20500
C725        C  0.16098899  0.49268765  0.70049660    -0.07000
C726        C  0.16162306  0.53370763  0.65463461     0.13800
C727        C  0.19719737  0.58108765  0.64393029    -0.23900
H728        H  0.12767695  0.56223555  0.58132983     0.15100
H729        H  0.12452226  0.91435296  0.73388603     0.15100
C730        C  0.05336576  0.90159519  0.67232932    -0.23800
H731        H  0.19182424  0.60628367  0.60539968     0.05400
H732        H  0.23184430  0.55465500  0.64150096     0.08600
H733        H  0.19497758  0.62039257  0.67390294     0.08600
H734        H  0.02453266  0.90729149  0.64368257     0.08600
H735        H  0.06842801  0.85000432  0.67148048     0.08600
H736        H  0.03789056  0.91217838  0.71192103     0.05300
C737        C  0.28941591  0.84832305  0.78366580    -0.20500
C738        C  0.27979980  0.79839034  0.74741270    -0.07000
C739        C  0.24730282  0.81785231  0.70668985     0.13800
C740        C  0.22378112  0.88021948  0.70748797    -0.20500
C741        C  0.22664974  0.92513431  0.74955736    -0.07000
C742        C  0.26163424  0.90786825  0.78824795     0.13800
C743        C  0.27219100  0.95066263  0.83481949    -0.23900
H744        H  0.31832679  0.84136557  0.81045467     0.15100
H745        H  0.20336401  0.89322174  0.67304097     0.15100
C746        C  0.23531431  0.77487808  0.66133816    -0.23800
H747        H  0.26999449  0.92225927  0.87185520     0.05400
H748        H  0.24806559  0.99488772  0.83934142     0.08600
H749        H  0.30791847  0.96603887  0.83113877     0.08600
H750        H  0.20663478  0.79728542  0.63650552     0.08600
H751        H  0.22253436  0.72933936  0.67607308     0.08600
H752        H  0.26525565  0.76755446  0.63453551     0.05300
C753        C  0.29826031  0.60666575  0.74240196    -0.20500
C754        C  0.27586932  0.66947208  0.75269082    -0.07000
C755        C  0.22883053  0.66998300  0.77086445     0.13800
C756        C  0.20896612  0.61028663  0.77663592    -0.20500
C757        C  0.22644511  0.55090350  0.75295422    -0.07000
C758        C  0.27373941  0.55058538  0.73482331     0.13800
C759        C  0.29993677  0.49541883  0.70422153    -0.23900
H760        H  0.33486094  0.60283706  0.73298639     0.15100
H761        H  0.17863248  0.61252827  0.80038547     0.15100
C762        C  0.19577064  0.72825015  0.78696786    -0.23800
H763        H  0.32767748  0.51351050  0.67953600     0.05400
H764        H  0.27735433  0.47129149  0.67634794     0.08600
H765        H  0.31871469  0.46015495  0.73105524     0.08600
H766        H  0.16564889  0.73163226  0.75964122     0.08600
H767        H  0.20880752  0.77633980  0.78823111     0.08600
H768        H  0.18235148  0.72071160  0.82742169     0.05300
C769        C  0.38533999  0.68967841  0.79522135    -0.20500
C770        C  0.33913222  0.71832632  0.80073813    -0.07000
C771        C  0.32473860  0.73239707  0.85436765     0.13800
C772        C  0.35839227  0.73797579  0.89392129    -0.20500
C773        C  0.40509236  0.71878805  0.88525448    -0.07000
C774        C  0.41796407  0.68862515  0.83646100     0.13800
C775        C  0.46550188  0.65540609  0.82536387    -0.23900
H776        H  0.39696959  0.66790011  0.75803276     0.15100
H777        H  0.34795160  0.75545766  0.93299181     0.15100
C778        C  0.27511642  0.73985085  0.87282819    -0.23800
H779        H  0.48041917  0.67726985  0.78982358     0.05400
H780        H  0.46244940  0.60273760  0.81717947     0.08600
H781        H  0.49026532  0.65903247  0.85825336     0.08600
H782        H  0.25889552  0.69390161  0.86513334     0.08600
H783        H  0.25543740  0.78250412  0.85538618     0.08600
H784        H  0.27245399  0.74776477  0.91620204     0.05300
C785        C  0.37563709  0.69404612  0.61362256    -0.20500
C786        C  0.40819786  0.73986870  0.61765528    -0.07000
C787        C  0.40662030  0.78215416  0.66163549     0.13800
C788        C  0.37272381  0.77665865  0.70065756    -0.20500
C789        C  0.33935092  0.72954154  0.69863324    -0.07000
C790        C  0.33992419  0.69014834  0.65087629     0.13800
C791        C  0.30294047  0.64859746  0.63104868    -0.23900
H792        H  0.37617981  0.66353341  0.57840838     0.15100
H793        H  0.37328462  0.80879082  0.73464201     0.15100
C794        C  0.44203129  0.83122763  0.66911720    -0.23800
H795        H  0.31757560  0.59751069  0.62544230     0.05400
H796        H  0.29052050  0.66657858  0.59174969     0.08600
H797        H  0.27210992  0.64970886  0.65551919     0.08600
H798        H  0.43913540  0.86787524  0.63696296     0.08600
H799        H  0.47735440  0.80551885  0.66906231     0.08600
H800        H  0.43721591  0.85814851  0.70715804     0.05300
C801        C  0.88847586  0.49198833  0.78958067    -0.20500
C802        C  0.83961476  0.00347711  0.79822850    -0.07000
C803        C  0.82500227  0.00782437  0.85255166     0.13800
C804        C  0.85833531  0.00556489  0.89322379    -0.20500
C805        C  0.90571375  0.99952625  0.88230867    -0.07000
C806        C  0.92109146  0.49239087  0.83023848     0.13800
C807        C  0.97210474  0.48606589  0.81710873    -0.23900
H808        H  0.90225628  0.47967156  0.75100267     0.15100
H809        H  0.84739884  0.00939551  0.93416765     0.15100
C810        C  0.77491818  0.01504964  0.86975933    -0.23800
H811        H  0.97841952  0.48174907  0.77390355     0.05400
H812        H  0.98943221  0.94301111  0.83623662     0.08600
H813        H  0.98793882  0.53025080  0.83136813     0.08600
H814        H  0.75489798  0.97757570  0.85102389     0.08600
H815        H  0.75991019  0.56514791  0.86188153     0.08600
H816        H  0.77136443  0.00854359  0.91306470     0.05300
C817        C  0.86339625  0.96292614  0.61050891    -0.20500
C818        C  0.89736108  0.50739519  0.60962710    -0.07000
C819        C  0.89661180  0.55612025  0.64862086     0.13800
C820        C  0.86379822  0.55650547  0.68885422    -0.20500
C821        C  0.83116113  0.00915930  0.69478719    -0.07000
C822        C  0.82935377  0.96388091  0.65075408     0.13800
C823        C  0.79203630  0.91803562  0.64099783    -0.23900
H824        H  0.86337554  0.92728498  0.57875303     0.15100
H825        H  0.86954096  0.58883126  0.72006457     0.15100
C826        C  0.93288955  0.60506255  0.65140337    -0.23800
H827        H  0.79560250  0.89360238  0.60178022     0.05400
H828        H  0.75748261  0.44683629  0.64009806     0.08600
H829        H  0.79396874  0.87738709  0.66946518     0.08600
H830        H  0.96808823  0.57895876  0.65266209     0.08600
H831        H  0.92975817  0.13798503  0.61658362     0.08600
H832        H  0.92904781  0.63667751  0.68713876     0.05300
C833        C  0.76573738  0.69545956  0.73778716    -0.20500
C834        C  0.71792668  0.70336719  0.74933150    -0.07000
C835        C  0.69802954  0.64361697  0.76200968     0.13800
C836        C  0.72671215  0.58504943  0.76867833    -0.20500
C837        C  0.77489192  0.57856347  0.75790923    -0.07000
C838        C  0.79379901  0.64066248  0.75488658     0.13800
C839        C  0.83521255  0.65925507  0.78670213    -0.23900
H840        H  0.78306747  0.73418405  0.71971135     0.15100
H841        H  0.71050411  0.54558979  0.78652559     0.15100
C842        C  0.64649588  0.63692884  0.76347172    -0.23800
H843        H  0.82296984  0.69105309  0.82032193     0.05400
H844        H  0.85805931  0.68728257  0.76176023     0.08600
H845        H  0.85639505  0.61832994  0.80455335     0.08600
H846        H  0.62870708  0.66517948  0.73106905     0.08600
H847        H  0.63199051  0.65158136  0.80264649     0.08600
H848        H  0.63869667  0.58539416  0.75716261     0.05300
C849        C  0.76530042  0.83078279  0.77401357    -0.20500
C850        C  0.71851995  0.83527939  0.75742713    -0.07000
C851        C  0.69994703  0.90122391  0.75110414     0.13800
C852        C  0.72942139  0.94835606  0.73547084    -0.20500
C853        C  0.77579066  0.94618915  0.75320884    -0.07000
C854        C  0.79427716  0.88258297  0.77065769     0.13800
C855        C  0.84531229  0.86310891  0.77826572    -0.23900
H856        H  0.78016918  0.78723465  0.79264710     0.15100
H857        H  0.71392933  0.98983450  0.71388374     0.15100
C858        C  0.65805585  0.93020688  0.78163101    -0.23800
H859        H  0.85315006  0.80919735  0.77812724     0.05400
H860        H  0.85722431  0.87998198  0.81715001     0.08600
H861        H  0.86540868  0.88108742  0.74487811     0.08600
H862        H  0.63681961  0.89401601  0.79909254     0.08600
H863        H  0.63574426  0.96348545  0.75602414     0.08600
H864        H  0.66969864  0.95921742  0.81550827     0.05300
C865        C  0.60529985  0.77870713  0.78718054    -0.20500
C866        C  0.65417725  0.77302002  0.79559061    -0.07000
C867        C  0.66899413  0.76394633  0.84970919     0.13800
C868        C  0.63597431  0.75927909  0.88992119    -0.20500
C869        C  0.58879528  0.77068768  0.88009718    -0.07000
C870        C  0.57339610  0.78479094  0.82869155     0.13800
C871        C  0.52335693  0.80676395  0.81737164    -0.23900
H872        H  0.59034135  0.77665787  0.74856828     0.15100
H873        H  0.64702929  0.74933014  0.93025294     0.15100
C874        C  0.71879142  0.75846883  0.86776945    -0.23800
H875        H  0.51645054  0.81209008  0.77436731     0.05400
H876        H  0.51446304  0.85504490  0.83638949     0.08600
H877        H  0.50030504  0.77173118  0.83367720     0.08600
H878        H  0.73292373  0.80665922  0.86458545     0.08600
H879        H  0.73980926  0.71949889  0.84634976     0.08600
H880        H  0.72222342  0.74536207  0.91019994     0.05300
C881        C  0.62967898  0.83373750  0.68339097    -0.20500
C882        C  0.66402321  0.78100435  0.69123281    -0.07000
C883        C  0.67052324  0.73759412  0.64632165     0.13800
C884        C  0.63642103  0.73863930  0.60641116    -0.20500
C885        C  0.59794470  0.78476761  0.60552923    -0.07000
C886        C  0.59591304  0.83531780  0.64347877     0.13800
C887        C  0.55704366  0.88915287  0.64750737    -0.23900
H888        H  0.62288111  0.86932923  0.71335678     0.15100
H889        H  0.64004417  0.70266624  0.57481417     0.15100
C890        C  0.71420045  0.69455639  0.63445150    -0.23800
H891        H  0.54039234  0.88725602  0.68695527     0.05400
H892        H  0.57152807  0.93729019  0.64343461     0.08600
H893        H  0.52927721  0.88660359  0.61807482     0.08600
H894        H  0.71639043  0.64936263  0.65824206     0.08600
H895        H  0.74480405  0.72303067  0.63912763     0.08600
H896        H  0.71537721  0.67743384  0.59272421     0.05300
loop_ 
_geom_bond_atom_site_label_1 
_geom_bond_atom_site_label_2 
_geom_bond_distance 
_geom_bond_site_symmetry_2 
_ccdc_geom_bond_type 
C1          C162   1.592       .  S
C1          C178   1.608       .  S
C1          C194   1.580       .  S
C1          C210   1.609       .  S
C2          C130   1.577       .  S
C2          C149   1.606       .  S
C2          C181   1.592       .  S
C2          C613   1.618       .  S
C3           C66   1.579       .  S
C3           C82   1.572       .  S
C3           C98   1.596       .  S
C3          C117   1.597       .  S
C4           C37   1.602       .  S
C4           C53   1.590       .  S
C4           C85   1.598   1_565  S
C4          C517   1.583       .  S
O5           V13   1.907   1_455  S
O5          C463   1.266       .  A
O6          V237   1.908       .  S
O6          C464   1.266       .  A
O7           V13   1.898       .  S
O7           C17   1.263       .  A
O8          V237   1.902   1_455  S
O8           C18   1.264       .  A
O9           V14   1.902   1_454  S
O9          C466   1.266   1_545  A
O10         V238   1.900       .  S
O10         C465   1.263   1_545  A
O11          V14   1.883   1_554  S
O11          C16   1.260       .  A
O12         V238   1.888   1_455  S
O12          C15   1.262   1_545  A
V13         O230   1.908       .  S
V13         O232   1.902   1_655  S
V13         V686   2.087       .  T
V14         O234   1.900       .  S
V14         O236   1.888   1_655  S
V14         V685   2.087   1_546  T
C15         O453   1.266       .  A
C15          C34   1.481       .  S
C16         O454   1.266   1_545  A
C16         C146   1.480       .  S
C17         O458   1.263       .  A
C17         C133   1.468       .  S
C18         O457   1.266       .  A
C18          C50   1.485       .  S
O19          V27   1.912   1_554  S
O19          C29   1.267       .  A
O20         V251   1.913       .  S
O20          C30   1.270       .  A
O21          V27   1.897   1_554  S
O21          C31   1.262       .  A
O22         V251   1.890       .  S
O22          C32   1.260       .  A
O23          V28   1.901       .  S
O23          C32   1.265       .  A
O24         V252   1.908       .  S
O24          C31   1.267       .  A
O25          V28   1.902       .  S
O25          C30   1.263       .  A
O26         V252   1.894       .  S
O26          C29   1.264       .  A
V27         O244   1.913       .  S
V27         O246   1.890       .  S
V27         V252   2.084   1_556  T
V28         O248   1.908       .  S
V28         O250   1.894       .  S
V28         V251   2.084       .  T
C29         C213   1.491       .  S
C30         C101   1.486       .  S
C31         C114   1.481       .  S
C32         C197   1.466       .  S
C33          C38   1.400       .  A
C33         C482   1.393       .  A
C33          H40   1.085       .  S
C34          C35   1.403       .  A
C34         C481   1.393   1_565  A
C35          C42   1.509       .  S
C35          C36   1.405       .  A
C36          C37   1.429       .  A
C36          H41   1.071       .  S
C37         C486   1.449   1_565  A
C38          C39   1.520       .  S
C38         C485   1.449       .  A
C39          H43   1.112       .  S
C39          H44   1.111       .  S
C39          H45   1.097       .  S
C42          H46   1.110       .  S
C42          H47   1.111       .  S
C42          H48   1.111       .  S
C49          C54   1.409       .  A
C49         C498   1.397   1_545  A
C49          H56   1.085       .  S
C50          C51   1.410       .  A
C50         C497   1.396       .  A
C51          C58   1.510       .  S
C51          C52   1.402       .  A
C52         C501   1.426       .  A
C52          H57   1.084       .  S
C53          C54   1.438   1_565  A
C53         C500   1.426       .  A
C54          C55   1.500       .  S
C55          H59   1.111       .  S
C55          H60   1.101       .  S
C55          H61   1.103       .  S
C58          H62   1.105       .  S
C58          H63   1.111       .  S
C58          H64   1.111       .  S
C65          C66   1.417       .  A
C65          C70   1.409       .  A
C65          H72   1.078       .  S
C66          C67   1.431       .  A
C67          C74   1.503       .  S
C67          C68   1.398       .  A
C68          C69   1.413       .  A
C68          H73   1.075       .  S
C69         C452   1.583       .  S
C69          C70   1.433       .  A
C70          C71   1.513       .  S
C71          H75   1.111       .  S
C71          H76   1.103       .  S
C71          H77   1.110       .  S
C74          H78   1.111       .  S
C74          H79   1.100       .  S
C74          H80   1.101       .  S
C81          C82   1.416       .  A
C81          C86   1.414       .  A
C81          H88   1.082       .  S
C82          C83   1.437       .  A
C83          C90   1.521       .  S
C83          C84   1.405       .  A
C84          C85   1.410       .  A
C84          H89   1.062       .  S
C85          C86   1.443       .  A
C86          C87   1.518   1_545  S
C87          H91   1.107   1_565  S
C87          H92   1.105       .  S
C87          H93   1.104       .  S
C90          H94   1.111       .  S
C90          H95   1.086       .  S
C90          H96   1.111       .  S
C97          C98   1.422       .  A
C97         C102   1.407       .  A
C97         H104   1.082       .  S
C98          C99   1.441       .  A
C99         C106   1.506       .  S
C99         C100   1.408       .  A
C100        C101   1.393       .  A
C100        H105   1.085       .  S
C101        C102   1.415       .  A
C102        C103   1.509       .  S
C103        H107   1.111       .  S
C103        H108   1.110       .  S
C103        H109   1.105       .  S
C106        H110   1.105       .  S
C106        H111   1.098       .  S
C106        H112   1.111       .  S
C113        C114   1.390       .  A
C113        C118   1.407       .  A
C113        H120   1.086       .  S
C114        C115   1.407       .  A
C115        C122   1.508       .  S
C115        C116   1.404       .  A
C116        C117   1.424       .  A
C116        H121   1.082       .  S
C117        C118   1.451       .  A
C118        C119   1.508       .  S
C119        H123   1.106       .  S
C119        H124   1.112       .  S
C119        H125   1.085       .  S
C122        H126   1.109       .  S
C122        H127   1.110       .  S
C122        H128   1.111       .  S
C129        C134   1.397       .  A
C129        C578   1.427   1_565  A
C129        H136   1.076       .  S
C130        C131   1.439       .  A
C130        C577   1.427       .  A
C131        C138   1.509       .  S
C131        C132   1.409       .  A
C132        C133   1.394       .  A
C132        H137   1.084       .  S
C133        C582   1.399       .  A
C134        C135   1.508       .  S
C134        C581   1.399       .  A
C135        H139   1.111       .  S
C135        H141   1.109   1_565  S
C135        H588   1.110       .  S
C138        H142   1.106       .  S
C138        H144   1.111       .  S
C138        H591   1.105       .  S
H140        C583   1.110       .  S
H143        C586   1.105       .  S
C145        C150   1.416       .  A
C145        C594   1.395       .  A
C145        H152   1.084       .  S
C146        C147   1.401       .  A
C146        C593   1.395   1_545  A
C147        C154   1.515       .  S
C147        C148   1.393       .  A
C148        C597   1.418       .  A
C148        H153   1.050       .  S
C149        C150   1.452       .  A
C149        C596   1.417       .  A
C150        C151   1.511       .  S
C151        H155   1.111       .  S
C151        H157   1.103       .  S
C151        H604   1.106       .  S
C154        H158   1.111       .  S
C154        H160   1.111       .  S
C154        H607   1.109       .  S
H156        C599   1.106       .  S
H159        C602   1.109       .  S
C161        C162   1.410       .  A
C161        C166   1.400       .  A
C161        H168   1.078       .  S
C162        C163   1.435       .  A
C163        C170   1.510       .  S
C163        C164   1.413       .  A
C164        C165   1.417       .  A
C164        H169   1.071       .  S
C165        C450   1.618       .  S
C165        C166   1.431       .  A
C166        C167   1.519       .  S
C167        H171   1.110       .  S
C167        H172   1.111       .  S
C167        H173   1.096       .  S
C170        H174   1.108       .  S
C170        H175   1.107       .  S
C170        H176   1.111       .  S
C177        C178   1.414       .  A
C177        C182   1.411       .  A
C177        H184   1.070       .  S
C178        C179   1.423       .  A
C179        C186   1.515       .  S
C179        C180   1.401       .  A
C180        C181   1.413       .  A
C180        H185   1.079       .  S
C181        C182   1.439       .  A
C182        C183   1.510       .  S
C183        H187   1.110       .  S
C183        H188   1.107       .  S
C183        H189   1.108       .  S
C186        H190   1.097       .  S
C186        H191   1.111       .  S
C186        H192   1.110       .  S
C193        C194   1.426       .  A
C193        C198   1.397       .  A
C193        H200   1.071       .  S
C194        C195   1.444       .  A
C195        C202   1.508       .  S
C195        C196   1.405       .  A
C196        C197   1.389       .  A
C196        H201   1.085       .  S
C197        C198   1.399       .  A
C198        C199   1.508       .  S
C199        H203   1.111       .  S
C199        H204   1.110       .  S
C199        H205   1.103       .  S
C202        H206   1.105       .  S
C202        H207   1.103       .  S
C202        H208   1.111       .  S
C209        C210   1.421       .  A
C209        C214   1.404       .  A
C209        H216   1.057       .  S
C210        C211   1.444       .  A
C211        C218   1.509       .  S
C211        C212   1.411       .  A
C212        C213   1.400       .  A
C212        H217   1.085       .  S
C213        C214   1.408       .  A
C214        C215   1.512       .  S
C215        H219   1.111       .  S
C215        H220   1.110       .  S
C215        H221   1.100       .  S
C218        H222   1.105       .  S
C218        H223   1.108       .  S
C218        H224   1.111       .  S
C225        C386   1.592       .  S
C225        C402   1.608       .  S
C225        C418   1.580       .  S
C225        C434   1.609       .  S
C226        C354   1.577       .  S
C226        C373   1.606       .  S
C226        C837   1.618       .  S
C226        C405   1.592       .  S
C227        C290   1.579       .  S
C227        C306   1.572       .  S
C227        C322   1.596       .  S
C227        C341   1.597       .  S
C228        C261   1.602       .  S
C228        C277   1.590       .  S
C228        C741   1.583       .  S
C228        C309   1.598   1_565  S
O229        V237   1.907   1_456  S
O229        C687   1.266       .  A
O230        C688   1.266       .  A
O231        V237   1.898   1_556  S
O231        C241   1.263       .  A
O232        C242   1.264       .  A
O233        V238   1.902   1_455  S
O233        C690   1.266   1_545  A
O234        C689   1.263   1_545  A
O235        V238   1.883       .  S
O235        C240   1.260       .  A
O236        C239   1.262   1_545  A
V237        V462   2.087   1_554  T
V238        V461   2.087   1_545  T
C239        O677   1.266       .  A
C239        C258   1.481       .  S
C240        O678   1.266   1_545  A
C240        C370   1.480       .  S
C241        O682   1.263       .  A
C241        C357   1.468       .  S
C242        O681   1.266       .  A
C242        C274   1.484       .  S
O243        V251   1.912       .  S
O243        C253   1.267       .  A
O244        C254   1.269       .  A
O245        V251   1.897       .  S
O245        C255   1.262       .  A
O246        C256   1.260       .  A
O247        V252   1.901   1_556  S
O247        C256   1.265       .  A
O248        C255   1.267       .  A
O249        V252   1.902   1_556  S
O249        C254   1.263       .  A
O250        C253   1.264       .  A
C253        C437   1.490       .  S
C254        C325   1.486       .  S
C255        C338   1.481       .  S
C256        C421   1.466       .  S
C257        C706   1.393       .  A
C257        C262   1.400       .  A
C257        H264   1.085       .  S
C258        C705   1.393   1_565  A
C258        C259   1.403       .  A
C259        C266   1.509       .  S
C259        C260   1.405       .  A
C260        C261   1.429       .  A
C260        H265   1.071       .  S
C261        C710   1.449   1_565  A
C262        C263   1.520       .  S
C262        C709   1.449       .  A
C263        H267   1.112       .  S
C263        H268   1.111       .  S
C263        H269   1.097       .  S
C266        H270   1.109       .  S
C266        H271   1.111       .  S
C266        H272   1.111       .  S
C273        C722   1.397   1_545  A
C273        C278   1.409       .  A
C273        H280   1.085       .  S
C274        C721   1.396       .  A
C274        C275   1.410       .  A
C275        C282   1.510       .  S
C275        C276   1.402       .  A
C276        C725   1.426       .  A
C276        H281   1.084       .  S
C277        C724   1.426       .  A
C277        C278   1.438   1_565  A
C278        C279   1.500       .  S
C279        H283   1.111       .  S
C279        H284   1.101       .  S
C279        H285   1.103       .  S
C282        H286   1.105       .  S
C282        H287   1.111       .  S
C282        H288   1.111       .  S
C289        C290   1.417       .  A
C289        C294   1.409       .  A
C289        H296   1.078       .  S
C290        C291   1.431       .  A
C291        C298   1.503       .  S
C291        C292   1.398       .  A
C292        C293   1.413       .  A
C292        H297   1.075       .  S
C293        C676   1.583       .  S
C293        C294   1.433       .  A
C294        C295   1.513       .  S
C295        H299   1.111       .  S
C295        H300   1.103       .  S
C295        H301   1.110       .  S
C298        H302   1.111       .  S
C298        H303   1.100       .  S
C298        H304   1.101       .  S
C305        C306   1.416       .  A
C305        C310   1.414       .  A
C305        H312   1.082       .  S
C306        C307   1.437       .  A
C307        C314   1.521       .  S
C307        C308   1.405       .  A
C308        C309   1.410       .  A
C308        H313   1.062       .  S
C309        C310   1.443       .  A
C310        C311   1.518   1_545  S
C311        H315   1.107   1_565  S
C311        H316   1.105       .  S
C311        H317   1.104       .  S
C314        H318   1.111       .  S
C314        H319   1.086       .  S
C314        H320   1.111       .  S
C321        C322   1.422       .  A
C321        C326   1.407       .  A
C321        H328   1.082       .  S
C322        C323   1.441       .  A
C323        C330   1.506       .  S
C323        C324   1.408       .  A
C324        C325   1.393       .  A
C324        H329   1.085       .  S
C325        C326   1.415       .  A
C326        C327   1.509       .  S
C327        H331   1.111       .  S
C327        H332   1.110       .  S
C327        H333   1.105       .  S
C330        H334   1.105       .  S
C330        H335   1.098       .  S
C330        H336   1.111       .  S
C337        C338   1.390       .  A
C337        C342   1.407       .  A
C337        H344   1.086       .  S
C338        C339   1.407       .  A
C339        C346   1.508       .  S
C339        C340   1.404       .  A
C340        C341   1.424       .  A
C340        H345   1.082       .  S
C341        C342   1.451       .  A
C342        C343   1.508       .  S
C343        H347   1.106       .  S
C343        H348   1.112       .  S
C343        H349   1.085       .  S
C346        H350   1.109       .  S
C346        H351   1.110       .  S
C346        H352   1.111       .  S
C353        C802   1.427   1_565  A
C353        C358   1.397       .  A
C353        H360   1.076       .  S
C354        C801   1.427       .  A
C354        C355   1.439       .  A
C355        C362   1.509       .  S
C355        C356   1.409       .  A
C356        C357   1.394       .  A
C356        H361   1.084       .  S
C357        C806   1.399       .  A
C358        C359   1.508       .  S
C358        C805   1.399       .  A
C359        H363   1.111       .  S
C359        H812   1.110       .  S
C359        H365   1.109   1_565  S
C362        H366   1.106       .  S
C362        H815   1.105       .  S
C362        H368   1.111       .  S
H364        C807   1.110       .  S
H367        C810   1.105       .  S
C369        C818   1.395       .  A
C369        C374   1.416       .  A
C369        H376   1.084       .  S
C370        C817   1.395   1_545  A
C370        C371   1.401       .  A
C371        C378   1.515       .  S
C371        C372   1.393       .  A
C372        C821   1.418       .  A
C372        H377   1.050       .  S
C373        C820   1.417       .  A
C373        C374   1.452       .  A
C374        C375   1.511       .  S
C375        H379   1.111       .  S
C375        H828   1.106       .  S
C375        H381   1.103       .  S
C378        H382   1.111       .  S
C378        H831   1.109       .  S
C378        H384   1.111       .  S
H380        C823   1.106       .  S
H383        C826   1.109       .  S
C385        C386   1.410       .  A
C385        C390   1.400       .  A
C385        H392   1.078       .  S
C386        C387   1.435       .  A
C387        C394   1.510       .  S
C387        C388   1.413       .  A
C388        C389   1.416       .  A
C388        H393   1.071       .  S
C389        C674   1.618       .  S
C389        C390   1.431       .  A
C390        C391   1.519       .  S
C391        H395   1.110       .  S
C391        H396   1.111       .  S
C391        H397   1.096       .  S
C394        H398   1.108       .  S
C394        H399   1.107       .  S
C394        H400   1.111       .  S
C401        C402   1.414       .  A
C401        C406   1.411       .  A
C401        H408   1.070       .  S
C402        C403   1.423       .  A
C403        C410   1.515       .  S
C403        C404   1.401       .  A
C404        C405   1.413       .  A
C404        H409   1.079       .  S
C405        C406   1.439       .  A
C406        C407   1.510       .  S
C407        H411   1.110       .  S
C407        H412   1.107       .  S
C407        H413   1.108       .  S
C410        H414   1.097       .  S
C410        H415   1.111       .  S
C410        H416   1.110       .  S
C417        C418   1.426       .  A
C417        C422   1.397       .  A
C417        H424   1.071       .  S
C418        C419   1.444       .  A
C419        C426   1.508       .  S
C419        C420   1.405       .  A
C420        C421   1.389       .  A
C420        H425   1.085       .  S
C421        C422   1.399       .  A
C422        C423   1.508       .  S
C423        H427   1.111       .  S
C423        H428   1.110       .  S
C423        H429   1.103       .  S
C426        H430   1.105       .  S
C426        H431   1.103       .  S
C426        H432   1.111       .  S
C433        C434   1.421       .  A
C433        C438   1.404       .  A
C433        H440   1.057       .  S
C434        C435   1.444       .  A
C435        C442   1.509       .  S
C435        C436   1.411       .  A
C436        C437   1.400       .  A
C436        H441   1.085       .  S
C437        C438   1.408       .  A
C438        C439   1.512       .  S
C439        H443   1.111       .  S
C439        H444   1.110       .  S
C439        H445   1.100       .  S
C442        H446   1.105       .  S
C442        H447   1.108       .  S
C442        H448   1.111       .  S
C449        C610   1.592       .  S
C449        C626   1.608       .  S
C449        C642   1.580       .  S
C449        C658   1.609       .  S
C450        C578   1.577       .  S
C450        C597   1.606       .  S
C450        C629   1.592   1_545  S
C451        C514   1.578       .  S
C451        C530   1.572       .  S
C451        C546   1.596       .  S
C451        C565   1.597       .  S
C452        C485   1.603       .  S
C452        C501   1.590       .  S
C452        C533   1.598       .  S
O453        V461   1.907   1_455  S
O454        V685   1.907       .  S
O455        V461   1.898       .  S
O455        C465   1.263       .  A
O456        V685   1.903   1_455  S
O456        C466   1.264       .  A
O457        V462   1.902   1_454  S
O458        V686   1.900       .  S
O459        V462   1.883   1_554  S
O459        C464   1.260       .  A
O460        V686   1.888   1_455  S
O460        C463   1.262       .  A
V461        O678   1.907       .  S
V461        O680   1.903   1_655  S
V462        O682   1.900       .  S
V462        O684   1.888   1_655  S
C463        C482   1.481       .  S
C464        C594   1.479       .  S
C465        C581   1.468       .  S
C466        C498   1.485       .  S
O467        V475   1.912   1_554  S
O467        C477   1.267       .  A
O468        V699   1.913       .  S
O468        C478   1.269       .  A
O469        V475   1.897   1_554  S
O469        C479   1.262       .  A
O470        V699   1.890       .  S
O470        C480   1.260       .  A
O471        V476   1.901       .  S
O471        C480   1.266       .  A
O472        V700   1.909       .  S
O472        C479   1.268       .  A
O473        V476   1.902       .  S
O473        C478   1.262       .  A
O474        V700   1.894       .  S
O474        C477   1.264       .  A
V475        O692   1.913       .  S
V475        O694   1.890       .  S
V475        V700   2.084   1_556  T
V476        O696   1.909       .  S
V476        O698   1.894       .  S
V476        V699   2.084       .  T
C477        C661   1.491       .  S
C478        C549   1.486       .  S
C479        C562   1.482       .  S
C480        C645   1.466       .  S
C481        C486   1.400       .  A
C481        H488   1.085       .  S
C482        C483   1.403       .  A
C483        C490   1.509       .  S
C483        C484   1.405       .  A
C484        C485   1.429       .  A
C484        H489   1.071       .  S
C486        C487   1.520       .  S
C487        H491   1.112       .  S
C487        H492   1.111       .  S
C487        H493   1.097       .  S
C490        H494   1.109       .  S
C490        H495   1.111       .  S
C490        H496   1.111       .  S
C497        C502   1.409       .  A
C497        H504   1.085       .  S
C498        C499   1.410       .  A
C499        C506   1.510       .  S
C499        C500   1.402       .  A
C500        H505   1.084       .  S
C501        C502   1.438       .  A
C502        C503   1.500       .  S
C503        H507   1.111       .  S
C503        H508   1.101       .  S
C503        H509   1.103       .  S
C506        H510   1.105       .  S
C506        H511   1.111       .  S
C506        H512   1.111       .  S
C513        C514   1.417       .  A
C513        C518   1.409       .  A
C513        H520   1.078       .  S
C514        C515   1.431       .  A
C515        C522   1.503       .  S
C515        C516   1.398       .  A
C516        C517   1.412       .  A
C516        H521   1.075       .  S
C517        C518   1.433       .  A
C518        C519   1.513       .  S
C519        H523   1.111       .  S
C519        H524   1.103       .  S
C519        H525   1.110       .  S
C522        H526   1.111       .  S
C522        H527   1.100       .  S
C522        H528   1.101       .  S
C529        C530   1.416       .  A
C529        C534   1.414       .  A
C529        H536   1.082       .  S
C530        C531   1.437       .  A
C531        C538   1.521       .  S
C531        C532   1.405       .  A
C532        C533   1.411       .  A
C532        H537   1.062       .  S
C533        C534   1.443       .  A
C534        C535   1.518       .  S
C535        H539   1.107       .  S
C535        H540   1.105       .  S
C535        H541   1.104       .  S
C538        H542   1.111       .  S
C538        H543   1.086       .  S
C538        H544   1.111       .  S
C545        C546   1.422       .  A
C545        C550   1.407       .  A
C545        H552   1.082       .  S
C546        C547   1.441       .  A
C547        C554   1.506       .  S
C547        C548   1.408       .  A
C548        C549   1.393       .  A
C548        H553   1.085       .  S
C549        C550   1.415       .  A
C550        C551   1.509       .  S
C551        H555   1.111       .  S
C551        H556   1.110       .  S
C551        H557   1.105       .  S
C554        H558   1.105       .  S
C554        H559   1.098       .  S
C554        H560   1.111       .  S
C561        C562   1.390       .  A
C561        C566   1.407       .  A
C561        H568   1.086       .  S
C562        C563   1.407       .  A
C563        C570   1.508       .  S
C563        C564   1.404       .  A
C564        C565   1.424       .  A
C564        H569   1.082       .  S
C565        C566   1.451       .  A
C566        C567   1.508       .  S
C567        H571   1.106       .  S
C567        H572   1.112       .  S
C567        H573   1.085       .  S
C570        H574   1.109       .  S
C570        H575   1.110       .  S
C570        H576   1.111       .  S
C577        C582   1.397       .  A
C577        H584   1.076       .  S
C578        C579   1.439       .  A
C579        C586   1.509       .  S
C579        C580   1.409       .  A
C580        C581   1.394   1_545  A
C580        H585   1.084       .  S
C582        C583   1.508       .  S
C583        H587   1.111       .  S
C583        H589   1.109       .  S
C586        H590   1.106   1_545  S
C586        H592   1.111       .  S
C593        C598   1.416       .  A
C593        H600   1.084       .  S
C594        C595   1.401       .  A
C595        C602   1.514       .  S
C595        C596   1.392       .  A
C596        H601   1.051       .  S
C597        C598   1.452   1_545  A
C598        C599   1.511       .  S
C599        H603   1.111       .  S
C599        H605   1.103       .  S
C602        H606   1.111       .  S
C602        H608   1.111       .  S
C609        C610   1.410       .  A
C609        C614   1.401       .  A
C609        H616   1.078       .  S
C610        C611   1.435       .  A
C611        C618   1.510       .  S
C611        C612   1.413       .  A
C612        C613   1.416       .  A
C612        H617   1.071       .  S
C613        C614   1.431       .  A
C614        C615   1.518       .  S
C615        H619   1.110       .  S
C615        H620   1.111       .  S
C615        H621   1.096       .  S
C618        H622   1.108       .  S
C618        H623   1.107       .  S
C618        H624   1.111       .  S
C625        C626   1.413       .  A
C625        C630   1.411       .  A
C625        H632   1.070       .  S
C626        C627   1.423       .  A
C627        C634   1.515       .  S
C627        C628   1.401       .  A
C628        C629   1.413       .  A
C628        H633   1.079       .  S
C629        C630   1.440       .  A
C630        C631   1.510       .  S
C631        H635   1.110       .  S
C631        H636   1.107       .  S
C631        H637   1.108       .  S
C634        H638   1.098       .  S
C634        H639   1.111       .  S
C634        H640   1.110       .  S
C641        C642   1.426       .  A
C641        C646   1.397       .  A
C641        H648   1.071       .  S
C642        C643   1.444       .  A
C643        C650   1.508       .  S
C643        C644   1.406       .  A
C644        C645   1.389       .  A
C644        H649   1.085       .  S
C645        C646   1.399       .  A
C646        C647   1.508       .  S
C647        H651   1.111       .  S
C647        H652   1.110       .  S
C647        H653   1.103       .  S
C650        H654   1.105       .  S
C650        H655   1.104       .  S
C650        H656   1.111       .  S
C657        C658   1.421       .  A
C657        C662   1.404       .  A
C657        H664   1.057       .  S
C658        C659   1.444       .  A
C659        C666   1.509       .  S
C659        C660   1.411       .  A
C660        C661   1.400       .  A
C660        H665   1.085       .  S
C661        C662   1.408       .  A
C662        C663   1.512       .  S
C663        H667   1.111       .  S
C663        H668   1.110       .  S
C663        H669   1.100       .  S
C666        H670   1.105       .  S
C666        H671   1.108       .  S
C666        H672   1.111       .  S
C673        C834   1.592       .  S
C673        C850   1.608       .  S
C673        C866   1.580       .  S
C673        C882   1.609       .  S
C674        C802   1.577       .  S
C674        C821   1.606       .  S
C674        C853   1.592   1_545  S
C675        C738   1.578       .  S
C675        C754   1.572       .  S
C675        C770   1.596       .  S
C675        C789   1.597       .  S
C676        C709   1.602       .  S
C676        C725   1.590       .  S
C676        C757   1.598       .  S
O677        V685   1.907   1_456  S
O679        V685   1.898   1_556  S
O679        C689   1.263       .  A
O680        C690   1.264       .  A
O681        V686   1.902   1_455  S
O683        V686   1.883       .  S
O683        C688   1.260       .  A
O684        C687   1.262       .  A
C687        C706   1.481       .  S
C688        C818   1.479       .  S
C689        C805   1.468       .  S
C690        C722   1.485       .  S
O691        V699   1.913       .  S
O691        C701   1.267       .  A
O692        C702   1.269       .  A
O693        V699   1.896       .  S
O693        C703   1.262       .  A
O694        C704   1.260       .  A
O695        V700   1.901   1_556  S
O695        C704   1.266       .  A
O696        C703   1.268       .  A
O697        V700   1.902   1_556  S
O697        C702   1.262       .  A
O698        C701   1.264       .  A
C701        C885   1.491       .  S
C702        C773   1.486       .  S
C703        C786   1.482       .  S
C704        C869   1.466       .  S
C705        C710   1.400       .  A
C705        H712   1.085       .  S
C706        C707   1.403       .  A
C707        C714   1.509       .  S
C707        C708   1.405       .  A
C708        C709   1.429       .  A
C708        H713   1.071       .  S
C710        C711   1.520       .  S
C711        H715   1.112       .  S
C711        H716   1.111       .  S
C711        H717   1.097       .  S
C714        H718   1.109       .  S
C714        H719   1.111       .  S
C714        H720   1.111       .  S
C721        C726   1.409       .  A
C721        H728   1.085       .  S
C722        C723   1.410       .  A
C723        C730   1.510       .  S
C723        C724   1.402       .  A
C724        H729   1.084       .  S
C725        C726   1.438       .  A
C726        C727   1.500       .  S
C727        H731   1.111       .  S
C727        H732   1.101       .  S
C727        H733   1.103       .  S
C730        H734   1.105       .  S
C730        H735   1.111       .  S
C730        H736   1.111       .  S
C737        C738   1.417       .  A
C737        C742   1.409       .  A
C737        H744   1.078       .  S
C738        C739   1.431       .  A
C739        C746   1.503       .  S
C739        C740   1.398       .  A
C740        C741   1.412       .  A
C740        H745   1.075       .  S
C741        C742   1.433       .  A
C742        C743   1.513       .  S
C743        H747   1.111       .  S
C743        H748   1.103       .  S
C743        H749   1.110       .  S
C746        H750   1.111       .  S
C746        H751   1.100       .  S
C746        H752   1.101       .  S
C753        C754   1.416       .  A
C753        C758   1.414       .  A
C753        H760   1.082       .  S
C754        C755   1.436       .  A
C755        C762   1.521       .  S
C755        C756   1.405       .  A
C756        C757   1.411       .  A
C756        H761   1.062       .  S
C757        C758   1.443       .  A
C758        C759   1.518       .  S
C759        H763   1.107       .  S
C759        H764   1.105       .  S
C759        H765   1.104       .  S
C762        H766   1.111       .  S
C762        H767   1.086       .  S
C762        H768   1.111       .  S
C769        C770   1.422       .  A
C769        C774   1.407       .  A
C769        H776   1.082       .  S
C770        C771   1.441       .  A
C771        C778   1.506       .  S
C771        C772   1.408       .  A
C772        C773   1.393       .  A
C772        H777   1.085       .  S
C773        C774   1.415       .  A
C774        C775   1.509       .  S
C775        H779   1.111       .  S
C775        H780   1.110       .  S
C775        H781   1.105       .  S
C778        H782   1.105       .  S
C778        H783   1.098       .  S
C778        H784   1.111       .  S
C785        C786   1.390       .  A
C785        C790   1.407       .  A
C785        H792   1.086       .  S
C786        C787   1.407       .  A
C787        C794   1.508       .  S
C787        C788   1.404       .  A
C788        C789   1.424       .  A
C788        H793   1.082       .  S
C789        C790   1.451       .  A
C790        C791   1.508       .  S
C791        H795   1.106       .  S
C791        H796   1.112       .  S
C791        H797   1.085       .  S
C794        H798   1.109       .  S
C794        H799   1.110       .  S
C794        H800   1.111       .  S
C801        C806   1.397       .  A
C801        H808   1.076       .  S
C802        C803   1.439       .  A
C803        C810   1.509       .  S
C803        C804   1.409       .  A
C804        C805   1.394   1_545  A
C804        H809   1.084       .  S
C806        C807   1.508       .  S
C807        H811   1.111       .  S
C807        H813   1.109       .  S
C810        H814   1.106   1_545  S
C810        H816   1.111       .  S
C817        C822   1.416       .  A
C817        H824   1.084       .  S
C818        C819   1.401       .  A
C819        C826   1.514       .  S
C819        C820   1.392       .  A
C820        H825   1.051       .  S
C821        C822   1.452   1_545  A
C822        C823   1.511       .  S
C823        H827   1.111       .  S
C823        H829   1.103       .  S
C826        H830   1.111       .  S
C826        H832   1.111       .  S
C833        C834   1.410       .  A
C833        C838   1.401       .  A
C833        H840   1.078       .  S
C834        C835   1.435       .  A
C835        C842   1.510       .  S
C835        C836   1.413       .  A
C836        C837   1.416       .  A
C836        H841   1.071       .  S
C837        C838   1.431       .  A
C838        C839   1.518       .  S
C839        H843   1.110       .  S
C839        H844   1.111       .  S
C839        H845   1.096       .  S
C842        H846   1.108       .  S
C842        H847   1.107       .  S
C842        H848   1.111       .  S
C849        C850   1.413       .  A
C849        C854   1.411       .  A
C849        H856   1.070       .  S
C850        C851   1.423       .  A
C851        C858   1.515       .  S
C851        C852   1.401       .  A
C852        C853   1.413       .  A
C852        H857   1.079       .  S
C853        C854   1.440       .  A
C854        C855   1.510       .  S
C855        H859   1.110       .  S
C855        H860   1.107       .  S
C855        H861   1.108       .  S
C858        H862   1.098       .  S
C858        H863   1.111       .  S
C858        H864   1.110       .  S
C865        C866   1.426       .  A
C865        C870   1.397       .  A
C865        H872   1.071       .  S
C866        C867   1.444       .  A
C867        C874   1.508       .  S
C867        C868   1.405       .  A
C868        C869   1.389       .  A
C868        H873   1.085       .  S
C869        C870   1.399       .  A
C870        C871   1.508       .  S
C871        H875   1.111       .  S
C871        H876   1.110       .  S
C871        H877   1.103       .  S
C874        H878   1.105       .  S
C874        H879   1.103       .  S
C874        H880   1.111       .  S
C881        C882   1.421       .  A
C881        C886   1.404       .  A
C881        H888   1.057       .  S
C882        C883   1.444       .  A
C883        C890   1.509       .  S
C883        C884   1.411       .  A
C884        C885   1.400       .  A
C884        H889   1.085       .  S
C885        C886   1.408       .  A
C886        C887   1.512       .  S
C887        H891   1.111       .  S
C887        H892   1.110       .  S
C887        H893   1.100       .  S
C890        H894   1.105       .  S
C890        H895   1.108       .  S
C890        H896   1.111       .  S
