geometry optimzed in LAMMPS
_audit_creation_date              2020-11-30 
_audit_creation_method            'lammps2cif' 
_symmetry_space_group_name_H-M    'P1' 
_symmetry_Int_Tables_number       1 
_symmetry_cell_setting            triclinic 
loop_ 
_symmetry_equiv_pos_as_xyz 
  x,y,z 
_cell_length_a                    34.33944331 
_cell_length_b                    33.93375156690821 
_cell_length_c                    43.10196568965782 
_cell_angle_alpha                 90.00669890741574 
_cell_angle_beta                  89.24084790469028 
_cell_angle_gamma                 89.72080456715968 
loop_ 
_atom_site_label 
_atom_site_type_symbol 
_atom_site_fract_x 
_atom_site_fract_y 
_atom_site_fract_z 
_atom_site_charge 
O1          O  0.16099943  0.20961396  0.03070374    -0.72200
O2          O  0.14298290  0.29240472  0.46822485    -0.73200
O3          O  0.14478389  0.28851367  0.03504475    -0.61800
O4          O  0.15604217  0.21253971  0.46348784    -0.70300
O5          O  0.09266866  0.20003557  0.46728404    -0.69800
O6          O  0.08093960  0.27819485  0.03526475    -0.61100
O7          O  0.07986776  0.27978359  0.46744663    -0.73600
O8          O  0.09743317  0.19857275  0.03482093    -0.72300
Cu9        Cu  0.15329557  0.25112371  0.49926850     1.04600
Cu10       Cu  0.08548292  0.23874686  0.00131644     1.04300
C11         C  0.13205612  0.19492511  0.04526201     0.94000
C12         C  0.11009697  0.29569401  0.45511585     0.93100
C13         C  0.11124482  0.29184370  0.04808884     0.85200
C14         C  0.12494016  0.19760987  0.45250301     0.91500
O15         O  0.23718327  0.05527279  0.03254002    -0.72200
O16         O  0.21339559  0.47806453  0.46467174    -0.73200
O17         O  0.21053557  0.47916321  0.03356899    -0.61800
O18         O  0.24128017  0.05412563  0.46514551    -0.70300
O19         O  0.05169289  0.03095068  0.46639917    -0.69800
O20         O  0.02092874  0.45570933  0.03411988    -0.61100
O21         O  0.02378391  0.45544034  0.46669058    -0.73600
O22         O  0.04743238  0.03161600  0.03438010    -0.72300
Cu23       Cu  0.22349301  0.01735998  0.99890156     1.04600
Cu24       Cu  0.03796708  0.99273185  0.00043513     1.04300
C25         C  0.01970409  0.05211625  0.04633380     0.94000
C26         C  0.99124920  0.45767061  0.45275791     0.93100
C27         C  0.98730256  0.45917610  0.04685100     0.85200
C28         C  0.02525935  0.05101373  0.45293828     0.91500
C29         C  0.21745186  0.12257323  0.25043960     0.30700
C30         C  0.04716728  0.12544471  0.24919747     0.30700
C31         C  0.23799019  0.10254859  0.22232528    -0.05500
C32         C  0.23554836  0.16437954  0.25004461    -0.06300
C33         C  0.23813855  0.10326794  0.27853149    -0.06100
C34         C  0.02838827  0.10406409  0.22217993    -0.05500
C35         C  0.02605120  0.16600446  0.24942046    -0.06300
C36         C  0.02867365  0.10421756  0.27704830    -0.06200
C37         C  0.04168698  0.08912473  0.19448688    -0.31500
N38         N  0.01078807  0.08031204  0.17682667     0.15000
C39         C  0.22774373  0.08731731  0.19372009    -0.31500
H40         H  0.19857883  0.08397512  0.18495590     0.16900
C41         C  0.03597163  0.20570903  0.24931473    -0.30500
N42         N  0.00268464  0.22803119  0.24990490     0.13700
C43         C  0.22182536  0.20292960  0.25036889    -0.30500
C44         C  0.04272860  0.08996336  0.30450014    -0.30800
N45         N  0.01245644  0.08342309  0.32393478     0.14200
H46         H  0.07292559  0.08760971  0.31109893     0.16800
C47         C  0.22879467  0.09040975  0.30838417    -0.30800
H48         H  0.19997741  0.08835602  0.31864979     0.16800
H49         H  0.19158081  0.21187007  0.25093449     0.16800
H50         H  0.07164802  0.08749715  0.18658581     0.16900
H51         H  0.06529056  0.21721914  0.24884203     0.16800
C52         C  0.03551613  0.37567407  0.24910830     0.30700
C53         C  0.20583512  0.37244047  0.24938370     0.30700
C54         C  0.01534710  0.39467371  0.22080825    -0.05500
C55         C  0.01745970  0.33374670  0.24976340    -0.06300
C56         C  0.01469530  0.39617864  0.27670943    -0.06100
C57         C  0.22488734  0.39322275  0.22142397    -0.05500
C58         C  0.22697072  0.33200653  0.24968090    -0.06300
C59         C  0.22432970  0.39413242  0.27688988    -0.06200
C60         C  0.21184222  0.40875023  0.19394757    -0.31500
N61         N  0.99292776  0.41772256  0.17577984     0.15000
C62         C  0.02585118  0.41000217  0.19202499    -0.31500
H63         H  0.05514313  0.41336116  0.18288843     0.16900
C64         C  0.21706819  0.29231714  0.24972325    -0.30500
N65         N  0.00036191  0.27003463  0.24994989     0.13700
C66         C  0.03119777  0.29517599  0.25002696    -0.30500
C67         C  0.21137897  0.40914377  0.30491989    -0.30800
N68         N  0.99248961  0.41993214  0.32206832     0.14200
H69         H  0.18157097  0.40935005  0.31320454     0.16800
C70         C  0.02517455  0.41299570  0.30462641    -0.30800
H71         H  0.05459380  0.41755087  0.31250118     0.16800
H72         H  0.06144045  0.28624620  0.25014445     0.16800
H73         H  0.18191654  0.41127258  0.18689642     0.16900
H74         H  0.18775927  0.28079455  0.24950244     0.16800
C75         C  0.08083657  0.37609578  0.24941217     0.30700
C76         C  0.16058674  0.37270998  0.24919340     0.30700
C77         C  0.10020452  0.35412363  0.22212025    -0.05500
C78         C  0.10178486  0.41645580  0.24860637    -0.06300
C79         C  0.09961321  0.35580100  0.27752073    -0.06100
C80         C  0.14072691  0.35263132  0.22162627    -0.05500
C81         C  0.14229966  0.41447965  0.24867279    -0.06300
C82         C  0.13982760  0.35359470  0.27721090    -0.06200
C83         C  0.15180679  0.33821831  0.19282397    -0.31500
N84         N  0.11913975  0.33130188  0.17635109     0.15000
C85         C  0.08766353  0.33958624  0.19434072    -0.31500
H86         H  0.05790219  0.33761046  0.18684320     0.16900
C87         C  0.15613461  0.45270959  0.24838603    -0.30500
N88         N  0.12539881  0.47803860  0.24818207     0.13700
C89         C  0.09196861  0.45621004  0.24825401    -0.30500
C90         C  0.15070287  0.33845955  0.30539771    -0.30800
N91         N  0.11861522  0.33407432  0.32416412     0.14200
H92         H  0.18040501  0.33242997  0.31108949     0.16800
C93         C  0.08726146  0.34318254  0.30631806    -0.30800
H94         H  0.05728509  0.34313189  0.31393171     0.16800
H95         H  0.06269621  0.46806937  0.24834235     0.16800
H96         H  0.18119170  0.33527309  0.18372916     0.16900
H97         H  0.18639134  0.46134130  0.24851085     0.16800
C98         C  0.09235396  0.12500513  0.24876975     0.30700
C99         C  0.17211664  0.12217186  0.24992266     0.30700
C100        C  0.11153235  0.14506231  0.27643726    -0.05500
C101        C  0.11086151  0.08337730  0.24906426    -0.06300
C102        C  0.11325823  0.14453135  0.22115188    -0.06100
C103        C  0.15190996  0.14335964  0.27725597    -0.05500
C104        C  0.15136351  0.08160410  0.24968790    -0.06300
C105        C  0.15382877  0.14321471  0.22175370    -0.06200
C106        C  0.16271182  0.15756729  0.30577045    -0.31500
N107        N  0.13008505  0.16673989  0.32232011     0.15000
C108        C  0.09879539  0.16036496  0.30424328    -0.31500
H109        H  0.06880544  0.16321504  0.31191320     0.16900
C110        C  0.16129374  0.04181485  0.24940149    -0.30500
N111        N  0.12793809  0.01988824  0.24857383     0.13700
C112        C  0.09715560  0.04513392  0.24835450    -0.30500
C113        C  0.16691439  0.15608276  0.19314497    -0.30800
N114        N  0.13573899  0.16329090  0.17503148     0.14200
H115        H  0.19682289  0.15750157  0.18512360     0.16800
C116        C  0.10284888  0.15751210  0.19208083    -0.30800
H117        H  0.07365788  0.16005637  0.18314568     0.16800
H118        H  0.06693898  0.03644660  0.24762650     0.16800
H119        H  0.19189694  0.15926882  0.31456700     0.16900
H120        H  0.19057871  0.03000340  0.24967470     0.16800
C121        C  0.99122061  0.42868263  0.35502347     0.00500
C122        C  0.01923133  0.41198663  0.37464011    -0.11300
C123        C  0.01782413  0.41801832  0.40685156     0.02800
C124        C  0.98810413  0.44173275  0.42044390     0.00500
C125        C  0.20949558  0.45761075  0.40082088    -0.11300
C126        C  0.21114598  0.45181545  0.36852802     0.02700
H127        H  0.04233231  0.39395444  0.36475467     0.15600
H128        H  0.18711185  0.47689217  0.41038876     0.15600
C129        C  0.18348971  0.47255434  0.34949872     0.37300
C130        C  0.04868487  0.40155523  0.42526067     0.37200
N131        N  0.16158532  0.48913088  0.33396216    -0.43000
N132        N  0.07347208  0.39005959  0.44081791    -0.43000
C133        C  0.99044119  0.42721367  0.14326539     0.00500
C134        C  0.22168636  0.46195918  0.13412250    -0.11300
C135        C  0.21619907  0.47052062  0.10259696     0.02800
C136        C  0.98214927  0.44528936  0.07938268     0.00500
C137        C  0.00005763  0.41001059  0.08870877    -0.11300
C138        C  0.00246990  0.40009497  0.12025645     0.02700
H139        H  0.21044309  0.48192091  0.15177427     0.15600
H140        H  0.01157997  0.38987155  0.07129346     0.15600
C141        C  0.01312717  0.36046445  0.12849388     0.37300
C142        C  0.19451700  0.50569983  0.09498325     0.37200
N143        N  0.01967575  0.32810091  0.13503084    -0.43000
N144        N  0.17657669  0.03364764  0.08919152    -0.43000
C145        C  0.03109011  0.06445428  0.42044302     0.00500
C146        C  0.01337620  0.09947324  0.41036018    -0.11300
C147        C  0.00804240  0.10669482  0.37859264     0.02800
C148        C  0.01741296  0.07715845  0.35663887     0.00500
C149        C  0.28833375  0.04403938  0.36640631    -0.11300
C150        C  0.29642679  0.03816995  0.39780337     0.02700
H151        H  0.00396187  0.12122507  0.42730546     0.15600
H152        H  0.29884677  0.02301695  0.34924587     0.15600
C153        C  0.32079342  0.00508232  0.40586340     0.37300
C154        C  0.99663742  0.14566847  0.36885273     0.37200
N155        N  0.34136422  0.47918183  0.41189729    -0.43000
N156        N  0.98866958  0.17737277  0.36125128    -0.43000
C157        C  0.02264922  0.06554754  0.07897057     0.00500
C158        C  0.04314763  0.04104375  0.09945556    -0.11300
C159        C  0.03901961  0.04524231  0.13154662     0.02800
C160        C  0.01378823  0.07423302  0.14389722     0.00500
C161        C  0.24503187  0.10039419  0.12362009    -0.11300
C162        C  0.24959572  0.09646369  0.09134175     0.02700
H163        H  0.06078961  0.01691750  0.09045771     0.15600
H164        H  0.22729980  0.12416515  0.13306797     0.15600
C165        C  0.23122772  0.12477877  0.07130710     0.37300
C166        C  0.05989284  0.01845588  0.15141483     0.37200
N167        N  0.21725438  0.14749305  0.05479101    -0.43000
N168        N  0.07689227  0.99715789  0.16731171    -0.43000
C169        C  0.10960870  0.31242643  0.42307562     0.00500
C170        C  0.14560429  0.32206570  0.40925625    -0.11300
C171        C  0.14988923  0.32818318  0.37730686     0.02800
C172        C  0.11684597  0.32670266  0.35766756     0.00500
C173        C  0.08033531  0.31938359  0.37219834    -0.11300
C174        C  0.07651168  0.31179808  0.40406223     0.02700
H175        H  0.17159132  0.32261779  0.42329937     0.15600
H176        H  0.05415901  0.31783482  0.35873351     0.15600
C177        C  0.03828091  0.30227008  0.41621422     0.37300
C178        C  0.18940286  0.33368065  0.36661189     0.37200
N179        N  0.00772847  0.29445316  0.42598265    -0.43000
N180        N  0.22175458  0.33682090  0.35920186    -0.43000
C181        C  0.11714974  0.32235392  0.14395588     0.00500
C182        C  0.09784760  0.28826434  0.13486667    -0.11300
C183        C  0.09177517  0.28042379  0.10352575     0.02800
C184        C  0.10856585  0.30518001  0.08053757     0.00500
C185        C  0.12727072  0.33973408  0.08964757    -0.11300
C186        C  0.12958367  0.34948991  0.12113217     0.02700
H187        H  0.08619211  0.26858221  0.15247441     0.14800
H188        H  0.13870466  0.35970756  0.07215997     0.15600
C189        C  0.13940751  0.38928989  0.12913690     0.37300
C190        C  0.06797869  0.24687905  0.09593228     0.37200
N191        N  0.14504064  0.42204538  0.13476597    -0.43000
N192        N  0.04825525  0.22030918  0.09035525    -0.43000
C193        C  0.12411421  0.18526402  0.41979706     0.00500
C194        C  0.10147608  0.20827502  0.39973706    -0.11300
C195        C  0.10349490  0.20285593  0.36765740     0.02800
C196        C  0.12816818  0.17358973  0.35517154     0.00500
C197        C  0.14896525  0.14886433  0.37533671    -0.11300
C198        C  0.14710424  0.15459272  0.40754387     0.02700
H199        H  0.08281902  0.23118187  0.40918843     0.15600
H200        H  0.16596615  0.12460352  0.36587760     0.15600
C201        C  0.16613309  0.12698912  0.42769233     0.37300
C202        C  0.08043225  0.22762541  0.34771561     0.37200
N203        N  0.18031734  0.10426608  0.44406875    -0.43000
N204        N  0.06192923  0.24637472  0.33093736    -0.43000
C205        C  0.13814423  0.18146867  0.07742036     0.00500
C206        C  0.15781110  0.20726783  0.09729148    -0.11300
C207        C  0.15790274  0.20105163  0.12930227     0.02800
C208        C  0.13751040  0.16901146  0.14203000     0.00500
C209        C  0.12020712  0.14147214  0.12203490    -0.11300
C210        C  0.12119076  0.14727506  0.08973364     0.02700
H211        H  0.17153056  0.23352547  0.08795166     0.15600
H212        H  0.10667363  0.11530434  0.13165600     0.15600
C213        C  0.10863236  0.11668951  0.06913262     0.37300
C214        C  0.17780228  0.22866455  0.14891744     0.37200
N215        N  0.10069434  0.09242528  0.05153561    -0.43000
N216        N  0.19395454  0.25043401  0.16484998    -0.43000
O217        O  0.16099904  0.20961393  0.53070377    -0.72200
O218        O  0.14298296  0.29240491  0.96822495    -0.73200
O219        O  0.14478336  0.28851367  0.53504467    -0.61800
O220        O  0.15604179  0.21253978  0.96348776    -0.70300
O221        O  0.09266824  0.20003600  0.96728419    -0.69800
O222        O  0.08093909  0.27819470  0.53526432    -0.61100
O223        O  0.07986778  0.27978405  0.96744689    -0.73600
O224        O  0.09743285  0.19857229  0.53482083    -0.72300
Cu225      Cu  0.15329572  0.25112377  0.99926849     1.04600
Cu226      Cu  0.08548279  0.23874646  0.50131620     1.04300
C227        C  0.13205580  0.19492479  0.54526195     0.94000
C228        C  0.11009701  0.29569429  0.95511601     0.93100
C229        C  0.11124415  0.29184373  0.54808852     0.85200
C230        C  0.12493962  0.19761013  0.95250301     0.91500
O231        O  0.23718302  0.05527256  0.53253988    -0.72200
O232        O  0.21339581  0.47806511  0.96467153    -0.73200
O233        O  0.21053595  0.47916268  0.53356899    -0.61800
O234        O  0.24128084  0.05412597  0.96514560    -0.70300
O235        O  0.05169342  0.03094978  0.96639926    -0.69800
O236        O  0.02092972  0.45570956  0.53411978    -0.61100
O237        O  0.02378311  0.45543996  0.96669071    -0.73600
O238        O  0.04743236  0.03161673  0.53437995    -0.72300
Cu239      Cu  0.22349320  0.01735948  0.49890155     1.04600
Cu240      Cu  0.03796740  0.99273248  0.50043499     1.04300
C241        C  0.01970385  0.05211669  0.54633361     0.94000
C242        C  0.99124859  0.45767077  0.95275783     0.93100
C243        C  0.98730351  0.45917579  0.54685095     0.85200
C244        C  0.02526021  0.05101321  0.95293832     0.91500
C245        C  0.21745160  0.12257289  0.75043972     0.30700
C246        C  0.04716706  0.12544429  0.74919735     0.30700
C247        C  0.23798983  0.10254866  0.72232515    -0.05500
C248        C  0.23554810  0.16437919  0.75004503    -0.06300
C249        C  0.23813841  0.10326723  0.77853144    -0.06100
C250        C  0.02838793  0.10406411  0.72217969    -0.05500
C251        C  0.02605099  0.16600402  0.74942075    -0.06300
C252        C  0.02867361  0.10421671  0.77704811    -0.06200
C253        C  0.04168647  0.08912503  0.69448650    -0.31500
N254        N  0.01078747  0.08031237  0.67682639     0.15000
C255        C  0.22774325  0.08731762  0.69371989    -0.31500
H256        H  0.19857833  0.08397534  0.68495577     0.16900
C257        C  0.03597141  0.20570859  0.74931496    -0.30500
N258        N  0.00268440  0.22803071  0.74990529     0.13700
C259        C  0.22182515  0.20292927  0.75036936    -0.30500
C260        C  0.04272879  0.08996222  0.80449981    -0.30800
N261        N  0.01245685  0.08342181  0.82393462     0.14200
H262        H  0.07292584  0.08760862  0.81109844     0.16800
C263        C  0.22879474  0.09040890  0.80838414    -0.30800
H264        H  0.19997756  0.08835545  0.81864993     0.16800
H265        H  0.19158059  0.21186980  0.75093490     0.16800
H266        H  0.07164746  0.08749748  0.68658531     0.16900
H267        H  0.06529031  0.21721870  0.74884202     0.16800
C268        C  0.03551610  0.37567348  0.74910831     0.30700
C269        C  0.20583508  0.37244003  0.74938355     0.30700
C270        C  0.01534725  0.39467313  0.72080823    -0.05500
C271        C  0.01745959  0.33374615  0.74976343    -0.06300
C272        C  0.01469521  0.39617812  0.77670940    -0.06100
C273        C  0.22488744  0.39322231  0.72142385    -0.05500
C274        C  0.22697062  0.33200612  0.74968075    -0.06300
C275        C  0.22432963  0.39413188  0.77688982    -0.06200
C276        C  0.21184254  0.40874995  0.69394744    -0.31500
N277        N  0.99292835  0.41772234  0.67577982     0.15000
C278        C  0.02585161  0.41000179  0.69202511    -0.31500
H279        H  0.05514365  0.41336081  0.68288872     0.16900
C280        C  0.21706804  0.29231675  0.74972324    -0.30500
N281        N  0.00036170  0.27003414  0.74995009     0.13700
C282        C  0.03119760  0.29517545  0.75002714    -0.30500
C283        C  0.21137887  0.40914326  0.80491983    -0.30800
N284        N  0.99248938  0.41993184  0.82206821     0.14200
H285        H  0.18157085  0.40934962  0.81320446     0.16800
C286        C  0.02517438  0.41299520  0.80462640    -0.30800
H287        H  0.05459361  0.41755032  0.81250123     0.16800
H288        H  0.06144026  0.28624562  0.75014477     0.16800
H289        H  0.18191693  0.41127230  0.68689616     0.16900
H290        H  0.18775911  0.28079418  0.74950248     0.16800
C291        C  0.08083654  0.37609518  0.74941214     0.30700
C292        C  0.16058670  0.37270948  0.74919326     0.30700
C293        C  0.10020447  0.35412296  0.72212019    -0.05500
C294        C  0.10178477  0.41645524  0.74860626    -0.06300
C295        C  0.09961324  0.35580047  0.77752069    -0.06100
C296        C  0.14072686  0.35263079  0.72162612    -0.05500
C297        C  0.14229957  0.41447913  0.74867269    -0.06300
C298        C  0.13982762  0.35359417  0.77721082    -0.06200
C299        C  0.15180663  0.33821811  0.69282367    -0.31500
N300        N  0.11913956  0.33130157  0.67635082     0.15000
C301        C  0.08766341  0.33958566  0.69434063    -0.31500
H302        H  0.05790203  0.33760976  0.68684327     0.16900
C303        C  0.15613448  0.45270911  0.74838575    -0.30500
N304        N  0.12539866  0.47803809  0.74818162     0.13700
C305        C  0.09196848  0.45620950  0.74825369    -0.30500
C306        C  0.15070292  0.33845909  0.80539767    -0.30800
N307        N  0.11861530  0.33407399  0.82416414     0.14200
H308        H  0.18040506  0.33242950  0.81108944     0.16800
C309        C  0.08726155  0.34318220  0.80631808    -0.30800
H310        H  0.05728517  0.34313163  0.81393175     0.16800
H311        H  0.06269607  0.46806881  0.74834197     0.16800
H312        H  0.18119153  0.33527315  0.68372877     0.16900
H313        H  0.18639116  0.46134090  0.74851047     0.16800
C314        C  0.09235372  0.12500470  0.74876952     0.30700
C315        C  0.17211636  0.12217149  0.74992266     0.30700
C316        C  0.11153197  0.14506145  0.77643728    -0.05500
C317        C  0.11086125  0.08337688  0.74906362    -0.06300
C318        C  0.11325807  0.14453138  0.72115185    -0.06100
C319        C  0.15190953  0.14335880  0.77725612    -0.05500
C320        C  0.15136325  0.08160368  0.74968739    -0.06300
C321        C  0.15382861  0.14321480  0.72175382    -0.06200
C322        C  0.16271123  0.15756674  0.80577056    -0.31500
N323        N  0.13008435  0.16673954  0.82232008     0.15000
C324        C  0.09879482  0.16036438  0.80424316    -0.31500
H325        H  0.06880482  0.16321448  0.81191291     0.16900
C326        C  0.16129349  0.04181443  0.74940088    -0.30500
N327        N  0.12793781  0.01988783  0.74857304     0.13700
C328        C  0.09715535  0.04513349  0.74835359    -0.30500
C329        C  0.16691440  0.15608308  0.69314518    -0.30800
N330        N  0.13573913  0.16329121  0.67503156     0.14200
H331        H  0.19682293  0.15750198  0.68512393     0.16800
C332        C  0.10284891  0.15751219  0.69208076    -0.30800
H333        H  0.07365798  0.16005630  0.68314545     0.16800
H334        H  0.06693869  0.03644616  0.74762546     0.16800
H335        H  0.19189631  0.15926832  0.81456717     0.16900
H336        H  0.19057843  0.03000302  0.74967427     0.16800
C337        C  0.99122025  0.42868249  0.85502335     0.00500
C338        C  0.01923113  0.41198693  0.87464002    -0.11300
C339        C  0.01782398  0.41801885  0.90685142     0.02800
C340        C  0.98810367  0.44173293  0.92044378     0.00500
C341        C  0.20949527  0.45761018  0.90082088    -0.11300
C342        C  0.21114560  0.45181478  0.86852800     0.02700
H343        H  0.04233230  0.39395490  0.86475463     0.15600
H344        H  0.18711135  0.47689135  0.91038878     0.15600
C345        C  0.18348942  0.47255373  0.84949865     0.37300
C346        C  0.04868507  0.40155614  0.92526037     0.37200
N347        N  0.16158521  0.48913031  0.83396196    -0.43000
N348        N  0.07347263  0.39006050  0.94081729    -0.43000
C349        C  0.99044216  0.42721353  0.64326537     0.00500
C350        C  0.22168668  0.46195886  0.63412241    -0.11300
C351        C  0.21619935  0.47052010  0.60259684     0.02800
C352        C  0.98215044  0.44528904  0.57938264     0.00500
C353        C  0.00005900  0.41001039  0.58870879    -0.11300
C354        C  0.00247107  0.40009482  0.62025649     0.02700
H355        H  0.21044304  0.48192045  0.65177415     0.15600
H356        H  0.01158141  0.38987135  0.57129352     0.15600
C357        C  0.01312793  0.36046421  0.62849406     0.37300
C358        C  0.19451622  0.50569860  0.59498304     0.37200
N359        N  0.01967610  0.32810067  0.63503126    -0.43000
N360        N  0.17657541  0.03364595  0.58919126    -0.43000
C361        C  0.03109109  0.06445355  0.92044298     0.00500
C362        C  0.01337729  0.09947251  0.91036001    -0.11300
C363        C  0.00804334  0.10669388  0.87859244     0.02800
C364        C  0.01741378  0.07715740  0.85663874     0.00500
C365        C  0.28833417  0.04403822  0.86640625    -0.11300
C366        C  0.29642726  0.03816899  0.89780337     0.02700
H367        H  0.00396308  0.12122449  0.92730522     0.15600
H368        H  0.29884716  0.02301568  0.84924589     0.15600
C369        C  0.32079404  0.00508152  0.90586357     0.37300
C370        C  0.99663791  0.14566732  0.86885238     0.37200
N371        N  0.34136683  0.47918220  0.91189771    -0.43000
N372        N  0.98866971  0.17737140  0.86125060    -0.43000
C373        C  0.02264886  0.06554805  0.57897033     0.00500
C374        C  0.04314731  0.04104436  0.59945532    -0.11300
C375        C  0.03901890  0.04524270  0.63154634     0.02800
C376        C  0.01378747  0.07423336  0.64389693     0.00500
C377        C  0.24503086  0.10039435  0.62361969    -0.11300
C378        C  0.24959497  0.09646392  0.59134135     0.02700
H379        H  0.06078948  0.01691823  0.59045748     0.15600
H380        H  0.22729852  0.12416515  0.63306748     0.15600
C381        C  0.23122694  0.12477875  0.57130645     0.37300
C382        C  0.05989155  0.01845585  0.65141453     0.37200
N383        N  0.21725366  0.14749252  0.55478990    -0.43000
N384        N  0.07689044  0.99715731  0.66731132    -0.43000
C385        C  0.10960879  0.31242652  0.92307571     0.00500
C386        C  0.14560444  0.32206545  0.90925627    -0.11300
C387        C  0.14988937  0.32818274  0.87730685     0.02800
C388        C  0.11684607  0.32670238  0.85766759     0.00500
C389        C  0.08033540  0.31938350  0.87219842    -0.11300
C390        C  0.07651176  0.31179820  0.90406234     0.02700
H391        H  0.17159148  0.32261751  0.92329935     0.15600
H392        H  0.05415908  0.31783476  0.85873361     0.15600
C393        C  0.03828100  0.30227030  0.91621441     0.37300
C394        C  0.18940301  0.33368002  0.86661182     0.37200
N395        N  0.00772860  0.29445326  0.92598286    -0.43000
N396        N  0.22175471  0.33682010  0.85920166    -0.43000
C397        C  0.11714939  0.32235369  0.64395556     0.00500
C398        C  0.09784731  0.28826405  0.63486631    -0.11300
C399        C  0.09177450  0.28042373  0.60352537     0.02800
C400        C  0.10856489  0.30518015  0.58053720     0.00500
C401        C  0.12726958  0.33973429  0.58964721    -0.11300
C402        C  0.12958285  0.34948992  0.62113183     0.02700
H403        H  0.08619213  0.26858172  0.65247406     0.14800
H404        H  0.13870326  0.35970792  0.57215959     0.15600
C405        C  0.13940694  0.38928982  0.62913666     0.37300
C406        C  0.06797824  0.24687885  0.59593178     0.37200
N407        N  0.14504068  0.42204515  0.63476593    -0.43000
N408        N  0.04825507  0.22030890  0.59035437    -0.43000
C409        C  0.12411349  0.18526412  0.91979707     0.00500
C410        C  0.10147484  0.20827463  0.89973706    -0.11300
C411        C  0.10349358  0.20285541  0.86765737     0.02800
C412        C  0.12816729  0.17358953  0.85517151     0.00500
C413        C  0.14896496  0.14886472  0.87533670    -0.11300
C414        C  0.14710408  0.15459324  0.90754383     0.02700
H415        H  0.08281752  0.23118133  0.90918841     0.15600
H416        H  0.16596628  0.12460418  0.86587761     0.15600
C417        C  0.16613355  0.12698993  0.92769215     0.37300
C418        C  0.08043053  0.22762455  0.84771558     0.37200
N419        N  0.18031829  0.10426684  0.94406825    -0.43000
N420        N  0.06192713  0.24637358  0.83093741    -0.43000
C421        C  0.13814406  0.18146847  0.57742031     0.00500
C422        C  0.15781051  0.20726806  0.59729134    -0.11300
C423        C  0.15790249  0.20105191  0.62930213     0.02800
C424        C  0.13751077  0.16901144  0.64203002     0.00500
C425        C  0.12020823  0.14147156  0.62203498    -0.11300
C426        C  0.12119151  0.14727443  0.58973368     0.02700
H427        H  0.17152939  0.23352596  0.58795145     0.15600
H428        H  0.10667551  0.11530340  0.63165616     0.15600
C429        C  0.10863423  0.11668824  0.56913281     0.37300
C430        C  0.17780184  0.22866517  0.64891709     0.37200
N431        N  0.10069728  0.09242329  0.55153609    -0.43000
N432        N  0.19395409  0.25043497  0.66484935    -0.43000
O433        O  0.16100092  0.70961038  0.03070292    -0.72200
O434        O  0.14298323  0.79240456  0.46822641    -0.73200
O435        O  0.14478383  0.78850934  0.03504683    -0.61800
O436        O  0.15604205  0.71253947  0.46348721    -0.70300
O437        O  0.09266851  0.70003566  0.46728397    -0.69800
O438        O  0.08093937  0.77819148  0.03526585    -0.61100
O439        O  0.07986809  0.77978371  0.46744795    -0.73600
O440        O  0.09743453  0.69857033  0.03482090    -0.72300
Cu441      Cu  0.15329599  0.75112160  0.49926898     1.04600
Cu442      Cu  0.08548343  0.73874527  0.00131703     1.04300
C443        C  0.13205762  0.69492236  0.04526173     0.94000
C444        C  0.11009726  0.79569467  0.45511752     0.93100
C445        C  0.11124443  0.79183940  0.04809052     0.85200
C446        C  0.12493962  0.69761038  0.45250252     0.91500
O447        O  0.23718378  0.55527420  0.03253952    -0.72200
O448        O  0.21339404  0.97806503  0.46467196    -0.73200
O449        O  0.21053279  0.97916299  0.03356955    -0.61800
O450        O  0.24128011  0.55412609  0.46514484    -0.70300
O451        O  0.05169342  0.53095297  0.46639812    -0.69800
O452        O  0.02092585  0.95570739  0.03412081    -0.61100
O453        O  0.02378138  0.95543921  0.46669138    -0.73600
O454        O  0.04743289  0.53161893  0.03437935    -0.72300
Cu455      Cu  0.22349458  0.51736031  0.99890104     1.04600
Cu456      Cu  0.03796871  0.49273410  0.00043419     1.04300
C457        C  0.01970416  0.55211852  0.04633323     0.94000
C458        C  0.99124739  0.95767157  0.45275791     0.93100
C459        C  0.98729962  0.95917510  0.04685174     0.85200
C460        C  0.02525889  0.55101473  0.45293730     0.91500
C461        C  0.21744883  0.62257486  0.25043929     0.30700
C462        C  0.04716429  0.62544496  0.24919797     0.30700
C463        C  0.23798735  0.60255135  0.22232452    -0.05500
C464        C  0.23554580  0.66438083  0.25004568    -0.06300
C465        C  0.23813477  0.60326805  0.27853070    -0.06100
C466        C  0.02838554  0.60406545  0.22217984    -0.05500
C467        C  0.02604865  0.66600508  0.24942175    -0.06300
C468        C  0.02866984  0.60421712  0.27704808    -0.06200
C469        C  0.04168477  0.58912527  0.19448721    -0.31500
N470        N  0.01078614  0.58031364  0.17682638     0.15000
C471        C  0.22774139  0.58732064  0.19371903    -0.31500
H472        H  0.19857671  0.58397918  0.18495424     0.16900
C473        C  0.03596940  0.70570964  0.24931747    -0.30500
N474        N  0.00268250  0.72803198  0.24990782     0.13700
C475        C  0.22182315  0.70293090  0.25037098    -0.30500
C476        C  0.04272375  0.58996304  0.30450019    -0.30800
N477        N  0.01245087  0.58342282  0.32393414     0.14200
H478        H  0.07292052  0.58760967  0.31109966     0.16800
C479        C  0.22878980  0.59041016  0.30838316    -0.30800
H480        H  0.19997227  0.58835704  0.31864833     0.16800
H481        H  0.19157865  0.71187156  0.25093611     0.16800
H482        H  0.07164603  0.58749658  0.18658680     0.16900
H483        H  0.06528838  0.71721961  0.24884546     0.16800
C484        C  0.03551333  0.87567490  0.24910910     0.30700
C485        C  0.20583234  0.87244084  0.24938434     0.30700
C486        C  0.01534432  0.89467342  0.22080859    -0.05500
C487        C  0.01745719  0.83374746  0.24976524    -0.06300
C488        C  0.01469220  0.89618058  0.27670953    -0.06100
C489        C  0.22488453  0.89322205  0.22142418    -0.05500
C490        C  0.22696829  0.83200725  0.24968275    -0.06300
C491        C  0.22432662  0.89413437  0.27688999    -0.06200
C492        C  0.21183929  0.90874944  0.19394787    -0.31500
N493        N  0.99292484  0.91772221  0.17578029     0.15000
C494        C  0.02584834  0.91000224  0.19202544    -0.31500
H495        H  0.05514027  0.91336188  0.18288897     0.16900
C496        C  0.21706604  0.79231788  0.24972585    -0.30500
N497        N  0.00035979  0.77003536  0.24995288     0.13700
C498        C  0.03119552  0.79517686  0.25002973    -0.30500
C499        C  0.21137575  0.90914830  0.30491918    -0.30800
N500        N  0.99248623  0.91993833  0.32206698     0.14200
H501        H  0.18156780  0.90935457  0.31320396     0.16800
C502        C  0.02517120  0.91300055  0.30462534    -0.30800
H503        H  0.05459052  0.91755661  0.31249967     0.16800
H504        H  0.06143825  0.78624718  0.25014749     0.16800
H505        H  0.18191362  0.91127156  0.18689664     0.16900
H506        H  0.18775722  0.78079513  0.24950480     0.16800
C507        C  0.08083379  0.87609643  0.24941290     0.30700
C508        C  0.16058396  0.87270992  0.24919372     0.30700
C509        C  0.10020131  0.85412286  0.22212138    -0.05500
C510        C  0.10178239  0.91645619  0.24860573    -0.06300
C511        C  0.09961068  0.85580282  0.27752203    -0.06100
C512        C  0.14072376  0.85263024  0.22162716    -0.05500
C513        C  0.14229714  0.91447947  0.24867201    -0.06300
C514        C  0.13982504  0.85359611  0.27721184    -0.06200
C515        C  0.15180317  0.83821788  0.19282453    -0.31500
N516        N  0.11913589  0.83130196  0.17635179     0.15000
C517        C  0.08765992  0.83958616  0.19434169    -0.31500
H518        H  0.05789852  0.83761083  0.18684412     0.16900
C519        C  0.15613284  0.95270891  0.24838442    -0.30500
N520        N  0.12539765  0.97803843  0.24818018     0.13700
C521        C  0.09196691  0.95621065  0.24825264    -0.30500
C522        C  0.15070087  0.83846222  0.30539893    -0.30800
N523        N  0.11861366  0.83407790  0.32416589     0.14200
H524        H  0.18040317  0.83243294  0.31109049     0.16800
C525        C  0.08725952  0.84318605  0.30632005    -0.30800
H526        H  0.05728332  0.84313648  0.31393419     0.16800
H527        H  0.06269472  0.96807061  0.24834110     0.16800
H528        H  0.18118797  0.83527276  0.18372942     0.16900
H529        H  0.18638967  0.96134005  0.24850909     0.16800
C530        C  0.09235097  0.62500510  0.24877025     0.30700
C531        C  0.17211367  0.62217336  0.24992270     0.30700
C532        C  0.11152915  0.64506328  0.27643731    -0.05500
C533        C  0.11085925  0.58337744  0.24906550    -0.06300
C534        C  0.11325485  0.64453103  0.22115191    -0.06100
C535        C  0.15190683  0.64336148  0.27725582    -0.05500
C536        C  0.15136132  0.58160520  0.24968874    -0.06300
C537        C  0.15382532  0.64321525  0.22175369    -0.06200
C538        C  0.16270852  0.65756920  0.30577029    -0.31500
N539        N  0.13008155  0.66674099  0.32232003     0.15000
C540        C  0.09879194  0.66036535  0.30424340    -0.31500
H541        H  0.06880198  0.66321441  0.31191356     0.16900
C542        C  0.16129278  0.54181624  0.24940276    -0.30500
N543        N  0.12793780  0.51988859  0.24857581     0.13700
C544        C  0.09715450  0.54513349  0.24835651    -0.30500
C545        C  0.16691090  0.65608569  0.19314570    -0.30800
N546        N  0.13573554  0.66329417  0.17503227     0.14200
H547        H  0.19681947  0.65750557  0.18512462     0.16800
C548        C  0.10284537  0.65751344  0.19208128    -0.30800
H549        H  0.07365439  0.66005755  0.18314608     0.16800
H550        H  0.06693806  0.53644536  0.24762870     0.16800
H551        H  0.19189362  0.65927084  0.31456695     0.16900
H552        H  0.19057809  0.53000567  0.24967557     0.16800
C553        C  0.99121803  0.92868923  0.35502208     0.00500
C554        C  0.01923146  0.91199572  0.37463751    -0.11300
C555        C  0.01782560  0.91802652  0.40684892     0.02800
C556        C  0.98810351  0.94173677  0.42044292     0.00500
C557        C  0.20949321  0.95761369  0.40082096    -0.11300
C558        C  0.21114235  0.95181969  0.36852788     0.02700
H559        H  0.04233336  0.89396532  0.36475127     0.15600
H560        H  0.18710806  0.97689245  0.41039010     0.15600
C561        C  0.18348243  0.97255625  0.34950030     0.37300
C562        C  0.04868866  0.90156480  0.42525627     0.37200
N563        N  0.16157450  0.98913119  0.33396583    -0.43000
N564        N  0.07347747  0.89006919  0.44081193    -0.43000
C565        C  0.99043811  0.92721304  0.14326591     0.00500
C566        C  0.22168385  0.96195903  0.13412307    -0.11300
C567        C  0.21619546  0.97051978  0.10259758     0.02800
C568        C  0.98214550  0.94528827  0.07938334     0.00500
C569        C  0.00005249  0.91000874  0.08870945    -0.11300
C570        C  0.00246439  0.90009306  0.12025714     0.02700
H571        H  0.21044117  0.98192113  0.15177484     0.15600
H572        H  0.01157362  0.88986903  0.07129413     0.15600
C573        C  0.01311818  0.86046148  0.12849482     0.37300
C574        C  0.19451092  0.00569749  0.09498395     0.37200
N575        N  0.01966412  0.82809740  0.13503201    -0.43000
N576        N  0.17658559  0.53365170  0.08919045    -0.43000
C577        C  0.03108800  0.56445358  0.42044157     0.00500
C578        C  0.01337802  0.59947470  0.41035917    -0.11300
C579        C  0.00804153  0.60669575  0.37859186     0.02800
C580        C  0.01740656  0.57715754  0.35663811     0.00500
C581        C  0.28832317  0.54403561  0.36640515    -0.11300
C582        C  0.29641826  0.53816607  0.39780177     0.02700
H583        H  0.00396846  0.62122835  0.42730462     0.15600
H584        H  0.29883165  0.52301112  0.34924455     0.15600
C585        C  0.32078025  0.50507487  0.40586131     0.37300
C586        C  0.99663735  0.64566975  0.36885220     0.37200
N587        N  0.34138102  0.97919223  0.41189944    -0.43000
N588        N  0.98866940  0.67737420  0.36125119    -0.43000
C589        C  0.02264909  0.56554949  0.07897026     0.00500
C590        C  0.04314531  0.54104408  0.09945553    -0.11300
C591        C  0.03901662  0.54524249  0.13154661     0.02800
C592        C  0.01378708  0.57423491  0.14389696     0.00500
C593        C  0.24503336  0.60039807  0.12361960    -0.11300
C594        C  0.24959766  0.59646735  0.09134132     0.02700
H595        H  0.06078570  0.51691657  0.09045781     0.15600
H596        H  0.22730272  0.62417026  0.13306730     0.15600
C597        C  0.23123178  0.62478389  0.07130685     0.37300
C598        C  0.05988636  0.51845368  0.15141513     0.37200
N599        N  0.21725970  0.64750004  0.05479168    -0.43000
N600        N  0.07688253  0.49715332  0.16731229    -0.43000
C601        C  0.10960884  0.81242853  0.42307758     0.00500
C602        C  0.14560434  0.82206775  0.40925791    -0.11300
C603        C  0.14988887  0.82818553  0.37730837     0.02800
C604        C  0.11684515  0.82670606  0.35766938     0.00500
C605        C  0.08033479  0.81938719  0.37220050    -0.11300
C606        C  0.07651162  0.81180098  0.40406432     0.02700
H607        H  0.17159158  0.82261914  0.42330080     0.15600
H608        H  0.05415825  0.81783891  0.35873587     0.15600
C609        C  0.03828090  0.80227280  0.41621612     0.37300
C610        C  0.18940244  0.83368217  0.36661287     0.37200
N611        N  0.00772819  0.79445543  0.42598373    -0.43000
N612        N  0.22175405  0.83682213  0.35920237    -0.43000
C613        C  0.11714537  0.82235337  0.14395674     0.00500
C614        C  0.09784286  0.78826367  0.13486815    -0.11300
C615        C  0.09177243  0.78042106  0.10352730     0.02800
C616        C  0.10856427  0.80517626  0.08053890     0.00500
C617        C  0.12726805  0.83973111  0.08964824    -0.11300
C618        C  0.12958019  0.84948830  0.12113254     0.02700
H619        H  0.08618681  0.76858238  0.15247624     0.14800
H620        H  0.13870230  0.85970389  0.07216026     0.15600
C621        C  0.13940471  0.88928843  0.12913631     0.37300
C622        C  0.06797815  0.74687447  0.09593419     0.37200
N623        N  0.14503865  0.92204399  0.13476458    -0.43000
N624        N  0.04825683  0.72030280  0.09035759    -0.43000
C625        C  0.12411281  0.68526485  0.41979672     0.00500
C626        C  0.10147251  0.70827456  0.39973736    -0.11300
C627        C  0.10349052  0.70285555  0.36765771     0.02800
C628        C  0.12816469  0.67359031  0.35517144     0.00500
C629        C  0.14896400  0.64886621  0.37533612    -0.11300
C630        C  0.14710448  0.65459520  0.40754316     0.02700
H631        H  0.08281509  0.73118099  0.40918910     0.15600
H632        H  0.16596609  0.62460642  0.36587672     0.15600
C633        C  0.16613747  0.62699451  0.42769154     0.37300
C634        C  0.08042745  0.72762542  0.34771646     0.37200
N635        N  0.18032491  0.60427443  0.44406870    -0.43000
N636        N  0.06192417  0.74637569  0.33093905    -0.43000
C637        C  0.13814563  0.68146716  0.07742047     0.00500
C638        C  0.15781223  0.70726695  0.09729134    -0.11300
C639        C  0.15790200  0.70105257  0.12930246     0.02800
C640        C  0.13750753  0.66901400  0.14203069     0.00500
C641        C  0.12020487  0.64147390  0.12203591    -0.11300
C642        C  0.12119095  0.64727465  0.08973444     0.02700
H643        H  0.17153307  0.73352354  0.08795097     0.15600
H644        H  0.10667043  0.61530684  0.13165743     0.15600
C645        C  0.10863450  0.61668767  0.06913398     0.37300
C646        C  0.17780287  0.72866499  0.14891725     0.37200
N647        N  0.10069864  0.59242224  0.05153734    -0.43000
N648        N  0.19395659  0.75043367  0.16484953    -0.43000
O649        O  0.16100033  0.70961017  0.53070289    -0.72200
O650        O  0.14298318  0.79240480  0.96822657    -0.73200
O651        O  0.14478320  0.78850939  0.53504663    -0.61800
O652        O  0.15604184  0.71253972  0.96348711    -0.70300
O653        O  0.09266833  0.70003585  0.96728423    -0.69800
O654        O  0.08093879  0.77819139  0.53526537    -0.61100
O655        O  0.07986803  0.77978395  0.96744825    -0.73600
O656        O  0.09743402  0.69856986  0.53482060    -0.72300
Cu657      Cu  0.15329627  0.75112176  0.99926903     1.04600
Cu658      Cu  0.08548323  0.73874502  0.50131668     1.04300
C659        C  0.13205705  0.69492188  0.54526153     0.94000
C660        C  0.11009720  0.79569479  0.95511768     0.93100
C661        C  0.11124370  0.79183956  0.54809010     0.85200
C662        C  0.12493930  0.69761065  0.95250256     0.91500
O663        O  0.23718321  0.55527401  0.53253937    -0.72200
O664        O  0.21339334  0.97806574  0.96467177    -0.73200
O665        O  0.21053373  0.97916245  0.53356950    -0.61800
O666        O  0.24128112  0.55412639  0.96514495    -0.70300
O667        O  0.05169374  0.53095213  0.96639812    -0.69800
O668        O  0.02092678  0.95570769  0.53412067    -0.61100
O669        O  0.02378068  0.95543871  0.96669154    -0.73600
O670        O  0.04743275  0.53161953  0.53437923    -0.72300
Cu671      Cu  0.22349420  0.51735990  0.49890103     1.04600
Cu672      Cu  0.03796907  0.49273463  0.50043410     1.04300
C673        C  0.01970382  0.55211885  0.54633305     0.94000
C674        C  0.99124692  0.95767173  0.95275782     0.93100
C675        C  0.98730051  0.95917487  0.54685162     0.85200
C676        C  0.02525961  0.55101437  0.95293724     0.91500
C677        C  0.21744868  0.62257452  0.75043949     0.30700
C678        C  0.04716411  0.62544446  0.74919785     0.30700
C679        C  0.23798700  0.60255141  0.72232444    -0.05500
C680        C  0.23554569  0.66438050  0.75004622    -0.06300
C681        C  0.23813479  0.60326723  0.77853068    -0.06100
C682        C  0.02838519  0.60406551  0.72217956    -0.05500
C683        C  0.02604846  0.66600459  0.74942221    -0.06300
C684        C  0.02866983  0.60421604  0.77704781    -0.06200
C685        C  0.04168423  0.58912574  0.69448675    -0.31500
N686        N  0.01078552  0.58031412  0.67682603     0.15000
C687        C  0.22774082  0.58732095  0.69371890    -0.31500
H688        H  0.19857607  0.58397936  0.68495426     0.16900
C689        C  0.03596922  0.70570915  0.74931789    -0.30500
N690        N  0.00268234  0.72803153  0.74990825     0.13700
C691        C  0.22182307  0.70293058  0.75037161    -0.30500
C692        C  0.04272396  0.58996159  0.80449977    -0.30800
N693        N  0.01245122  0.58342131  0.82393386     0.14200
H694        H  0.07292076  0.58760821  0.81109912     0.16800
C695        C  0.22879014  0.59040916  0.80838320    -0.30800
H696        H  0.19997275  0.58835643  0.81864865     0.16800
H697        H  0.19157856  0.71187127  0.75093682     0.16800
H698        H  0.07164543  0.58749712  0.68658619     0.16900
H699        H  0.06528821  0.71721906  0.74884567     0.16800
C700        C  0.03551331  0.87567440  0.74910903     0.30700
C701        C  0.20583234  0.87244051  0.74938409     0.30700
C702        C  0.01534441  0.89467295  0.72080849    -0.05500
C703        C  0.01745713  0.83374700  0.74976521    -0.06300
C704        C  0.01469209  0.89618010  0.77670940    -0.06100
C705        C  0.22488471  0.89322172  0.72142400    -0.05500
C706        C  0.22696825  0.83200691  0.74968254    -0.06300
C707        C  0.22432650  0.89413394  0.77688984    -0.06200
C708        C  0.21183968  0.90874923  0.69394765    -0.31500
N709        N  0.99292522  0.91772213  0.67578024     0.15000
C710        C  0.02584862  0.91000197  0.69202546    -0.31500
H711        H  0.05514063  0.91336159  0.68288913     0.16900
C712        C  0.21706597  0.79231756  0.74972583    -0.30500
N713        N  0.00035966  0.77003493  0.74995309     0.13700
C714        C  0.03119542  0.79517637  0.75002992    -0.30500
C715        C  0.21137544  0.90914808  0.80491893    -0.30800
N716        N  0.99248598  0.91993788  0.82206680     0.14200
H717        H  0.18156740  0.90935463  0.81320350     0.16800
C718        C  0.02517101  0.91300007  0.80462521    -0.30800
H719        H  0.05459030  0.91755624  0.81249951     0.16800
H720        H  0.06143813  0.78624665  0.75014780     0.16800
H721        H  0.18191408  0.91127130  0.68689626     0.16900
H722        H  0.18775714  0.78079484  0.74950479     0.16800
C723        C  0.08083378  0.87609592  0.74941279     0.30700
C724        C  0.16058395  0.87270956  0.74919346     0.30700
C725        C  0.10020127  0.85412224  0.72212129    -0.05500
C726        C  0.10178232  0.91645573  0.74860549    -0.06300
C727        C  0.09961073  0.85580244  0.77752192    -0.06100
C728        C  0.14072373  0.85262977  0.72162694    -0.05500
C729        C  0.14229707  0.91447908  0.74867171    -0.06300
C730        C  0.13982510  0.85359581  0.77721171    -0.06200
C731        C  0.15180300  0.83821772  0.69282414    -0.31500
N732        N  0.11913563  0.83130169  0.67635150     0.15000
C733        C  0.08765976  0.83958561  0.69434160    -0.31500
H734        H  0.05789832  0.83761021  0.68684416     0.16900
C735        C  0.15613267  0.95270857  0.74838392    -0.30500
N736        N  0.12539745  0.97803801  0.74817953     0.13700
C737        C  0.09196674  0.95621017  0.74825215    -0.30500
C738        C  0.15070094  0.83846211  0.80539889    -0.30800
N739        N  0.11861369  0.83407781  0.82416587     0.14200
H740        H  0.18040322  0.83243290  0.81109049     0.16800
C741        C  0.08725958  0.84318588  0.80632001    -0.30800
H742        H  0.05728338  0.84313642  0.81393416     0.16800
H743        H  0.06269453  0.96807008  0.74834059     0.16800
H744        H  0.18118773  0.83527289  0.68372885     0.16900
H745        H  0.18638949  0.96133980  0.74850855     0.16800
C746        C  0.09235079  0.62500464  0.74876998     0.30700
C747        C  0.17211349  0.62217299  0.74992274     0.30700
C748        C  0.11152882  0.64506229  0.77643734    -0.05500
C749        C  0.11085911  0.58337698  0.74906471    -0.06300
C750        C  0.11325477  0.64453123  0.72115196    -0.06100
C751        C  0.15190647  0.64336049  0.77725603    -0.05500
C752        C  0.15136118  0.58160478  0.74968819    -0.06300
C753        C  0.15382526  0.64321554  0.72175391    -0.06200
C754        C  0.16270797  0.65756836  0.80577050    -0.31500
N755        N  0.13008092  0.66674034  0.82232007     0.15000
C756        C  0.09879142  0.66036457  0.80424331    -0.31500
H757        H  0.06880143  0.66321370  0.81191328     0.16900
C758        C  0.16129262  0.54181579  0.74940228    -0.30500
N759        N  0.12793766  0.51988811  0.74857510     0.13700
C760        C  0.09715437  0.54513302  0.74835554    -0.30500
C761        C  0.16691096  0.65608602  0.69314593    -0.30800
N762        N  0.13573570  0.66329429  0.67503231     0.14200
H763        H  0.19681956  0.65750595  0.68512494     0.16800
C764        C  0.10284547  0.65751351  0.69208122    -0.30800
H765        H  0.07365453  0.66005741  0.68314590     0.16800
H766        H  0.06693794  0.53644488  0.74762765     0.16800
H767        H  0.19189304  0.65927005  0.81456723     0.16900
H768        H  0.19057793  0.53000526  0.74967543     0.16800
C769        C  0.99121771  0.92868912  0.85502187     0.00500
C770        C  0.01923128  0.91199608  0.87463733    -0.11300
C771        C  0.01782549  0.91802707  0.90684869     0.02800
C772        C  0.98810316  0.94173704  0.92044273     0.00500
C773        C  0.20949245  0.95761378  0.90082073    -0.11300
C774        C  0.21114179  0.95181968  0.86852765     0.02700
H775        H  0.04233333  0.89396581  0.86475113     0.15600
H776        H  0.18710724  0.97689252  0.91038978     0.15600
C777        C  0.18348238  0.97255656  0.84949985     0.37300
C778        C  0.04868902  0.90156578  0.92525576     0.37200
N779        N  0.16157507  0.98913186  0.83396507    -0.43000
N780        N  0.07347849  0.89007036  0.94081083    -0.43000
C781        C  0.99043870  0.92721293  0.64326584     0.00500
C782        C  0.22168443  0.96195877  0.63412290    -0.11300
C783        C  0.21619600  0.97051928  0.60259738     0.02800
C784        C  0.98214656  0.94528803  0.57938321     0.00500
C785        C  0.00005366  0.91000859  0.58870942    -0.11300
C786        C  0.00246523  0.90009296  0.62025714     0.02700
H787        H  0.21044146  0.98192079  0.65177460     0.15600
H788        H  0.01157501  0.88986889  0.57129418     0.15600
C789        C  0.01311878  0.86046139  0.62849500     0.37300
C790        C  0.19451050  0.00569635  0.59498368     0.37200
N791        N  0.01966429  0.82809733  0.63503245    -0.43000
N792        N  0.17658376  0.53364976  0.58919019    -0.43000
C793        C  0.03108894  0.56445295  0.92044141     0.00500
C794        C  0.01337898  0.59947397  0.91035879    -0.11300
C795        C  0.00804228  0.60669463  0.87859145     0.02800
C796        C  0.01740719  0.57715623  0.85663785     0.00500
C797        C  0.28832441  0.54403451  0.86640512    -0.11300
C798        C  0.29641954  0.53816528  0.89780182     0.02700
H799        H  0.00396957  0.62122787  0.92730408     0.15600
H800        H  0.29883309  0.52300996  0.84924464     0.15600
C801        C  0.32078219  0.50507462  0.90586155     0.37300
C802        C  0.99663791  0.64566845  0.86885156     0.37200
N803        N  0.34138177  0.97919163  0.91189988    -0.43000
N804        N  0.98866961  0.67737276  0.86125045    -0.43000
C805        C  0.02264864  0.56554991  0.57896998     0.00500
C806        C  0.04314502  0.54104467  0.59945526    -0.11300
C807        C  0.03901609  0.54524296  0.63154630     0.02800
C808        C  0.01378637  0.57423528  0.64389662     0.00500
C809        C  0.24503228  0.60039832  0.62361920    -0.11300
C810        C  0.24959667  0.59646757  0.59134091     0.02700
H811        H  0.06078556  0.51691724  0.59045757     0.15600
H812        H  0.22730138  0.62417033  0.63306685     0.15600
C813        C  0.23123048  0.62478374  0.57130625     0.37300
C814        C  0.05988541  0.51845380  0.65141482     0.37200
N815        N  0.21725842  0.64749938  0.55479065    -0.43000
N816        N  0.07688115  0.49715310  0.66731197    -0.43000
C817        C  0.10960881  0.81242838  0.92307761     0.00500
C818        C  0.14560433  0.82206752  0.90925790    -0.11300
C819        C  0.14988883  0.82818544  0.87730838     0.02800
C820        C  0.11684513  0.82670599  0.85766938     0.00500
C821        C  0.08033476  0.81938700  0.87220049    -0.11300
C822        C  0.07651158  0.81180087  0.90406436     0.02700
H823        H  0.17159159  0.82261883  0.92330076     0.15600
H824        H  0.05415829  0.81783856  0.85873583     0.15600
C825        C  0.03828088  0.80227264  0.91621618     0.37300
C826        C  0.18940242  0.83368197  0.86661286     0.37200
N827        N  0.00772819  0.79445514  0.92598377    -0.43000
N828        N  0.22175403  0.83682186  0.85920233    -0.43000
C829        C  0.11714488  0.82235330  0.64395638     0.00500
C830        C  0.09784232  0.78826364  0.63486771    -0.11300
C831        C  0.09177164  0.78042125  0.60352682     0.02800
C832        C  0.10856330  0.80517659  0.58053847     0.00500
C833        C  0.12726703  0.83973144  0.58964787    -0.11300
C834        C  0.12957950  0.84948836  0.62113221     0.02700
H835        H  0.08618646  0.76858219  0.65247577     0.14800
H836        H  0.13870117  0.85970432  0.57215992     0.15600
C837        C  0.13940456  0.88928829  0.62913608     0.37300
C838        C  0.06797749  0.74687466  0.59593352     0.37200
N839        N  0.14503907  0.92204374  0.63476434    -0.43000
N840        N  0.04825632  0.72030304  0.59035646    -0.43000
C841        C  0.12411230  0.68526488  0.91979678     0.00500
C842        C  0.10147143  0.70827403  0.89973739    -0.11300
C843        C  0.10348932  0.70285484  0.86765771     0.02800
C844        C  0.12816388  0.67358985  0.85517148     0.00500
C845        C  0.14896372  0.64886630  0.87533621    -0.11300
C846        C  0.14710440  0.65459554  0.90754322     0.02700
H847        H  0.08281375  0.73118028  0.90918909     0.15600
H848        H  0.16596622  0.62460677  0.86587688     0.15600
C849        C  0.16613838  0.62699544  0.92769156     0.37300
C850        C  0.08042594  0.72762446  0.84771644     0.37200
N851        N  0.18032674  0.60427568  0.94406848    -0.43000
N852        N  0.06192251  0.74637460  0.83093904    -0.43000
C853        C  0.13814506  0.68146690  0.57742036     0.00500
C854        C  0.15781105  0.70726726  0.59729114    -0.11300
C855        C  0.15790141  0.70105288  0.62930225     0.02800
C856        C  0.13750784  0.66901382  0.64203066     0.00500
C857        C  0.12020599  0.64147307  0.62203592    -0.11300
C858        C  0.12119161  0.64727380  0.58973442     0.02700
H859        H  0.17153109  0.73352421  0.58795068     0.15600
H860        H  0.10667260  0.61530551  0.63165750     0.15600
C861        C  0.10863652  0.61668604  0.56913411     0.37300
C862        C  0.17780201  0.72866582  0.64891677     0.37200
N863        N  0.10070163  0.59241977  0.55153789    -0.43000
N864        N  0.19395557  0.75043514  0.66484862    -0.43000
O865        O  0.41099969  0.20961409  0.03070378    -0.72200
O866        O  0.39298294  0.29240461  0.46822488    -0.73200
O867        O  0.39478408  0.28851370  0.03504489    -0.61800
O868        O  0.40604215  0.21253946  0.46348786    -0.70300
O869        O  0.34266863  0.20003538  0.46728404    -0.69800
O870        O  0.33093977  0.27819503  0.03526471    -0.61100
O871        O  0.32986780  0.27978353  0.46744655    -0.73600
O872        O  0.34743343  0.19857279  0.03482088    -0.72300
Cu873      Cu  0.40329554  0.25112347  0.49926851     1.04600
Cu874      Cu  0.33548315  0.23874700  0.00131643     1.04300
C875        C  0.38205637  0.19492522  0.04526201     0.94000
C876        C  0.36009702  0.29569398  0.45511585     0.93100
C877        C  0.36124495  0.29184381  0.04808888     0.85200
C878        C  0.37494012  0.19760967  0.45250301     0.91500
O879        O  0.48718352  0.05527287  0.03254000    -0.72200
O880        O  0.46339568  0.47806450  0.46467178    -0.73200
O881        O  0.46053542  0.47916309  0.03356901    -0.61800
O882        O  0.49128036  0.05412576  0.46514558    -0.70300
O883        O  0.30169273  0.03095055  0.46639912    -0.69800
O884        O  0.27092902  0.45570927  0.03412002    -0.61100
O885        O  0.27378367  0.45544036  0.46669059    -0.73600
O886        O  0.29743211  0.03161589  0.03438002    -0.72300
Cu887      Cu  0.47349329  0.01736008  0.99890154     1.04600
Cu888      Cu  0.28796672  0.99273179  0.00043506     1.04300
C889        C  0.26970385  0.05211611  0.04633378     0.94000
C890        C  0.24124894  0.45767058  0.45275794     0.93100
C891        C  0.23730279  0.45917598  0.04685106     0.85200
C892        C  0.27525914  0.05101355  0.45293827     0.91500
C893        C  0.46745184  0.12257338  0.25043968     0.30700
C894        C  0.29716730  0.12544460  0.24919742     0.30700
C895        C  0.48799015  0.10254879  0.22232533    -0.05500
C896        C  0.48554836  0.16437969  0.25004468    -0.06300
C897        C  0.48813855  0.10326806  0.27853157    -0.06100
C898        C  0.27838835  0.10406383  0.22217992    -0.05500
C899        C  0.27605119  0.16600430  0.24942028    -0.06300
C900        C  0.27867365  0.10421754  0.27704831    -0.06200
C901        C  0.29168705  0.08912441  0.19448686    -0.31500
N902        N  0.26078812  0.08031160  0.17682669     0.15000
C903        C  0.47774369  0.08731766  0.19372009    -0.31500
H904        H  0.44857880  0.08397541  0.18495591     0.16900
C905        C  0.28597158  0.20570888  0.24931452    -0.30500
N906        N  0.25268456  0.22803100  0.24990466     0.13700
C907        C  0.47182538  0.20292976  0.25036894    -0.30500
C908        C  0.29272858  0.08996343  0.30450019    -0.30800
N909        N  0.26245639  0.08342307  0.32393478     0.14200
H910        H  0.32292555  0.08760989  0.31109902     0.16800
C911        C  0.47879470  0.09040999  0.30838429    -0.30800
H912        H  0.44997748  0.08835637  0.31864994     0.16800
H913        H  0.44158085  0.21187027  0.25093443     0.16800
H914        H  0.32164804  0.08749696  0.18658572     0.16900
H915        H  0.31529049  0.21721901  0.24884189     0.16800
C916        C  0.28551610  0.37567387  0.24910831     0.30700
C917        C  0.45583510  0.37244057  0.24938378     0.30700
C918        C  0.26534712  0.39467350  0.22080821    -0.05500
C919        C  0.26745966  0.33374649  0.24976341    -0.06300
C920        C  0.26469526  0.39617844  0.27670946    -0.06100
C921        C  0.47488732  0.39322283  0.22142403    -0.05500
C922        C  0.47697070  0.33200666  0.24968096    -0.06300
C923        C  0.47432971  0.39413252  0.27688995    -0.06200
C924        C  0.46184225  0.40875024  0.19394760    -0.31500
N925        N  0.24292779  0.41772235  0.17577978     0.15000
C926        C  0.27585120  0.41000184  0.19202491    -0.31500
H927        H  0.30514315  0.41336074  0.18288832     0.16900
C928        C  0.46706818  0.29231727  0.24972345    -0.30500
N929        N  0.25036181  0.27003444  0.24994970     0.13700
C930        C  0.28119771  0.29517577  0.25002692    -0.30500
C931        C  0.46137903  0.40914405  0.30491993    -0.30800
N932        N  0.24248949  0.41993183  0.32206839     0.14200
H933        H  0.43157103  0.40935047  0.31320460     0.16800
C934        C  0.27517445  0.41299542  0.30462650    -0.30800
H935        H  0.30459368  0.41755060  0.31250132     0.16800
H936        H  0.31144036  0.28624594  0.25014447     0.16800
H937        H  0.43191657  0.41127254  0.18689644     0.16900
H938        H  0.43775927  0.28079468  0.24950275     0.16800
C939        C  0.33083653  0.37609566  0.24941222     0.30700
C940        C  0.41058672  0.37271005  0.24919348     0.30700
C941        C  0.35020455  0.35412350  0.22212033    -0.05500
C942        C  0.35178471  0.41645573  0.24860637    -0.06300
C943        C  0.34961323  0.35580102  0.27752082    -0.06100
C944        C  0.39072693  0.35263127  0.22162639    -0.05500
C945        C  0.39229952  0.41447965  0.24867282    -0.06300
C946        C  0.38982762  0.35359486  0.27721102    -0.06200
C947        C  0.40180682  0.33821833  0.19282408    -0.31500
N948        N  0.36913984  0.33130181  0.17635115     0.15000
C949        C  0.33766359  0.33958614  0.19434077    -0.31500
H950        H  0.30790228  0.33761023  0.18684326     0.16900
C951        C  0.40613441  0.45270958  0.24838603    -0.30500
N952        N  0.37539860  0.47803856  0.24818206     0.13700
C953        C  0.34196841  0.45620998  0.24825401    -0.30500
C954        C  0.40070290  0.33845974  0.30539782    -0.30800
N955        N  0.36861527  0.33407444  0.32416422     0.14200
H956        H  0.43040509  0.33243013  0.31108954     0.16800
C957        C  0.33726150  0.34318254  0.30631814    -0.30800
H958        H  0.30728511  0.34313169  0.31393171     0.16800
H959        H  0.31269597  0.46806926  0.24834236     0.16800
H960        H  0.43119177  0.33527315  0.18372929     0.16900
H961        H  0.43639110  0.46134131  0.24851087     0.16800
C962        C  0.34235393  0.12500511  0.24876978     0.30700
C963        C  0.42211660  0.12217194  0.24992275     0.30700
C964        C  0.36153228  0.14506256  0.27643721    -0.05500
C965        C  0.36086150  0.08337731  0.24906449    -0.06300
C966        C  0.36325820  0.14453108  0.22115181    -0.06100
C967        C  0.40190989  0.14335992  0.27725596    -0.05500
C968        C  0.40136350  0.08160415  0.24968816    -0.06300
C969        C  0.40382872  0.14321453  0.22175367    -0.06200
C970        C  0.41271171  0.15756759  0.30577045    -0.31500
N971        N  0.38008489  0.16674018  0.32232008     0.15000
C972        C  0.34879527  0.16036521  0.30424322    -0.31500
H973        H  0.31880532  0.16321517  0.31191315     0.16900
C974        C  0.41129377  0.04181491  0.24940182    -0.30500
N975        N  0.37793814  0.01988828  0.24857420     0.13700
C976        C  0.34715562  0.04513391  0.24835476    -0.30500
C977        C  0.41691437  0.15608295  0.19314505    -0.30800
N978        N  0.38573899  0.16329105  0.17503152     0.14200
H979        H  0.44682291  0.15750209  0.18512379     0.16800
C980        C  0.35284887  0.15751203  0.19208081    -0.30800
H981        H  0.32365788  0.16005639  0.18314566     0.16800
H982        H  0.31693901  0.03644658  0.24762661     0.16800
H983        H  0.44189679  0.15926904  0.31456707     0.16900
H984        H  0.44057875  0.03000350  0.24967498     0.16800
C985        C  0.24122046  0.42868238  0.35502354     0.00500
C986        C  0.26923128  0.41198662  0.37464021    -0.11300
C987        C  0.26782400  0.41801831  0.40685165     0.02800
C988        C  0.23810389  0.44173261  0.42044396     0.00500
C989        C  0.45949585  0.45761109  0.40082087    -0.11300
C990        C  0.46114625  0.45181581  0.36852801     0.02700
H991        H  0.29233240  0.39395455  0.36475480     0.15600
H992        H  0.43711221  0.47689260  0.41038874     0.15600
C993        C  0.43349024  0.47255497  0.34949867     0.37300
C994        C  0.29868474  0.40155526  0.42526081     0.37200
N995        N  0.41158618  0.48913174  0.33396197    -0.43000
N996        N  0.32347194  0.39005954  0.44081804    -0.43000
C997        C  0.24044125  0.42721350  0.14326535     0.00500
C998        C  0.47168633  0.46195911  0.13412250    -0.11300
C999        C  0.46619900  0.47052047  0.10259695     0.02800
C1000       C  0.23214942  0.44528927  0.07938270     0.00500
C1001       C  0.25005756  0.41001038  0.08870876    -0.11300
C1002       C  0.25246986  0.40009476  0.12025642     0.02700
H1003       H  0.46044289  0.48192079  0.15177425     0.15600
H1004       H  0.26157976  0.38987128  0.07129344     0.15600
C1005       C  0.26312712  0.36046420  0.12849382     0.37300
C1006       C  0.44451664  0.50569950  0.09498323     0.37200
N1007       N  0.26967573  0.32810062  0.13503065    -0.43000
N1008       N  0.42657725  0.03364816  0.08919153    -0.43000
C1009       C  0.28108983  0.06445412  0.42044301     0.00500
C1010       C  0.26337599  0.09947314  0.41036019    -0.11300
C1011       C  0.25804235  0.10669482  0.37859264     0.02800
C1012       C  0.26741285  0.07715845  0.35663887     0.00500
C1013       C  0.53833379  0.04403945  0.36640636    -0.11300
C1014       C  0.54642684  0.03816997  0.39780341     0.02700
H1015       H  0.25396173  0.12122499  0.42730548     0.15600
H1016       H  0.54884677  0.02301702  0.34924590     0.15600
C1017       C  0.57079328  0.00508223  0.40586345     0.37300
C1018       C  0.24663746  0.14566849  0.36885273     0.37200
N1019       N  0.59136394  0.47918181  0.41189730    -0.43000
N1020       N  0.23866966  0.17737279  0.36125127    -0.43000
C1021       C  0.27264910  0.06554731  0.07897056     0.00500
C1022       C  0.29314758  0.04104349  0.09945548    -0.11300
C1023       C  0.28901961  0.04524200  0.13154655     0.02800
C1024       C  0.26378826  0.07423267  0.14389723     0.00500
C1025       C  0.49503185  0.10039448  0.12362002    -0.11300
C1026       C  0.49959584  0.09646392  0.09134168     0.02700
H1027       H  0.31078953  0.01691725  0.09045757     0.15600
H1028       H  0.47729979  0.12416550  0.13306782     0.15600
C1029       C  0.48122812  0.12477908  0.07130693     0.37300
C1030       C  0.30989283  0.01845551  0.15141467     0.37200
N1031       N  0.46725495  0.14749339  0.05479075    -0.43000
N1032       N  0.32689229  0.99715730  0.16731134    -0.43000
C1033       C  0.35960879  0.31242647  0.42307565     0.00500
C1034       C  0.39560441  0.32206541  0.40925625    -0.11300
C1035       C  0.39988930  0.32818290  0.37730688     0.02800
C1036       C  0.36684599  0.32670269  0.35766763     0.00500
C1037       C  0.33033533  0.31938385  0.37219844    -0.11300
C1038       C  0.32651171  0.31179837  0.40406231     0.02700
H1039       H  0.42159148  0.32261722  0.42329933     0.15600
H1040       H  0.30415896  0.31783530  0.35873365     0.15600
C1041       C  0.28828089  0.30227068  0.41621438     0.37300
C1042       C  0.43940292  0.33368006  0.36661189     0.37200
N1043       N  0.25772842  0.29445403  0.42598289    -0.43000
N1044       N  0.47175466  0.33682007  0.35920185    -0.43000
C1045       C  0.36714990  0.32235380  0.14395594     0.00500
C1046       C  0.34784771  0.28826422  0.13486670    -0.11300
C1047       C  0.34177518  0.28042377  0.10352576     0.02800
C1048       C  0.35856584  0.30518007  0.08053762     0.00500
C1049       C  0.37727073  0.33973410  0.08964764    -0.11300
C1050       C  0.37958378  0.34948984  0.12113223     0.02700
H1051       H  0.33619223  0.26858206  0.15247443     0.14800
H1052       H  0.38870460  0.35970763  0.07216006     0.15600
C1053       C  0.38940759  0.38928985  0.12913698     0.37300
C1054       C  0.31797867  0.24687905  0.09593221     0.37200
N1055       N  0.39504082  0.42204529  0.13476615    -0.43000
N1056       N  0.29825524  0.22030921  0.09035505    -0.43000
C1057       C  0.37411415  0.18526404  0.41979703     0.00500
C1058       C  0.35147609  0.20827519  0.39973711    -0.11300
C1059       C  0.35349475  0.20285608  0.36765745     0.02800
C1060       C  0.37816798  0.17358989  0.35517152     0.00500
C1061       C  0.39896517  0.14886452  0.37533661    -0.11300
C1062       C  0.39710415  0.15459278  0.40754376     0.02700
H1063       H  0.33281913  0.23118212  0.40918853     0.15600
H1064       H  0.41596613  0.12460377  0.36587745     0.15600
C1065       C  0.41613289  0.12698901  0.42769214     0.37300
C1066       C  0.33043204  0.22762553  0.34771570     0.37200
N1067       N  0.43031702  0.10426582  0.44406849    -0.43000
N1068       N  0.31192897  0.24637473  0.33093742    -0.43000
C1069       C  0.38814443  0.18146882  0.07742036     0.00500
C1070       C  0.40781136  0.20726792  0.09729150    -0.11300
C1071       C  0.40790285  0.20105177  0.12930232     0.02800
C1072       C  0.38751042  0.16901166  0.14203004     0.00500
C1073       C  0.37020708  0.14147241  0.12203492    -0.11300
C1074       C  0.37119072  0.14727536  0.08973366     0.02700
H1075       H  0.42153093  0.23352549  0.08795166     0.15600
H1076       H  0.35667350  0.11530465  0.13165600     0.15600
C1077       C  0.35863200  0.11668996  0.06913264     0.37300
C1078       C  0.42780223  0.22866473  0.14891756     0.37200
N1079       N  0.35069373  0.09242586  0.05153559    -0.43000
N1080       N  0.44395430  0.25043414  0.16485028    -0.43000
O1081       O  0.41099897  0.20961363  0.53070375    -0.72200
O1082       O  0.39298313  0.29240503  0.96822502    -0.73200
O1083       O  0.39478327  0.28851343  0.53504465    -0.61800
O1084       O  0.40604207  0.21253981  0.96348783    -0.70300
O1085       O  0.34266849  0.20003618  0.96728420    -0.69800
O1086       O  0.33093898  0.27819454  0.53526428    -0.61100
O1087       O  0.32986794  0.27978423  0.96744692    -0.73600
O1088       O  0.34743274  0.19857219  0.53482076    -0.72300
Cu1089     Cu  0.40329595  0.25112385  0.99926857     1.04600
Cu1090     Cu  0.33548276  0.23874635  0.50131613     1.04300
C1091       C  0.38205567  0.19492458  0.54526191     0.94000
C1092       C  0.36009718  0.29569449  0.95511607     0.93100
C1093       C  0.36124405  0.29184358  0.54808846     0.85200
C1094       C  0.37493988  0.19761026  0.95250305     0.91500
O1095       O  0.48718306  0.05527279  0.53253989    -0.72200
O1096       O  0.46339543  0.47806493  0.96467158    -0.73200
O1097       O  0.46053603  0.47916264  0.53356901    -0.61800
O1098       O  0.49128110  0.05412599  0.96514554    -0.70300
O1099       O  0.30169293  0.03094963  0.96639913    -0.69800
O1100       O  0.27092970  0.45570954  0.53411980    -0.61100
O1101       O  0.27378341  0.45543979  0.96669089    -0.73600
O1102       O  0.29743225  0.03161665  0.53437983    -0.72300
Cu1103     Cu  0.47349331  0.01735961  0.49890160     1.04600
Cu1104     Cu  0.28796735  0.99273237  0.50043496     1.04300
C1105       C  0.26970370  0.05211650  0.54633356     0.94000
C1106       C  0.24124895  0.45767065  0.95275793     0.93100
C1107       C  0.23730348  0.45917579  0.54685096     0.85200
C1108       C  0.27525970  0.05101313  0.95293827     0.91500
C1109       C  0.46745163  0.12257302  0.75043983     0.30700
C1110       C  0.29716704  0.12544418  0.74919734     0.30700
C1111       C  0.48798982  0.10254890  0.72232520    -0.05500
C1112       C  0.48554817  0.16437930  0.75004522    -0.06300
C1113       C  0.48813851  0.10326726  0.77853150    -0.06100
C1114       C  0.27838798  0.10406386  0.72217969    -0.05500
C1115       C  0.27605095  0.16600392  0.74942062    -0.06300
C1116       C  0.27867352  0.10421671  0.77704812    -0.06200
C1117       C  0.29168656  0.08912474  0.69448651    -0.31500
N1118       N  0.26078757  0.08031211  0.67682635     0.15000
C1119       C  0.47774321  0.08731787  0.69371994    -0.31500
H1120       H  0.44857829  0.08397549  0.68495587     0.16900
C1121       C  0.28597136  0.20570849  0.74931480    -0.30500
N1122       N  0.25268435  0.22803062  0.74990505     0.13700
C1123       C  0.47182522  0.20292936  0.75036960    -0.30500
C1124       C  0.29272860  0.08996222  0.80449986    -0.30800
N1125       N  0.26245655  0.08342174  0.82393457     0.14200
H1126       H  0.32292562  0.08760865  0.81109857     0.16800
C1127       C  0.47879491  0.09040905  0.80838425    -0.30800
H1128       H  0.44997778  0.08835579  0.81865011     0.16800
H1129       H  0.44158069  0.21186987  0.75093515     0.16800
H1130       H  0.32164756  0.08749723  0.68658536     0.16900
H1131       H  0.31529026  0.21721861  0.74884188     0.16800
C1132       C  0.28551609  0.37567334  0.74910830     0.30700
C1133       C  0.45583510  0.37244007  0.74938350     0.30700
C1134       C  0.26534722  0.39467307  0.72080823    -0.05500
C1135       C  0.26745956  0.33374604  0.74976332    -0.06300
C1136       C  0.26469520  0.39617787  0.77670945    -0.06100
C1137       C  0.47488747  0.39322228  0.72142378    -0.05500
C1138       C  0.47697072  0.33200619  0.74968085    -0.06300
C1139       C  0.47432957  0.39413210  0.77688972    -0.06200
C1140       C  0.46184258  0.40874994  0.69394738    -0.31500
N1141       N  0.24292823  0.41772227  0.67577981     0.15000
C1142       C  0.27585152  0.41000163  0.69202506    -0.31500
H1143       H  0.30514355  0.41336052  0.68288861     0.16900
C1144       C  0.46706815  0.29231682  0.74972346    -0.30500
N1145       N  0.25036165  0.27003404  0.74994985     0.13700
C1146       C  0.28119756  0.29517533  0.75002698    -0.30500
C1147       C  0.46137875  0.40914356  0.80491970    -0.30800
N1148       N  0.24248937  0.41993132  0.82206835     0.14200
H1149       H  0.43157072  0.40934999  0.81320429     0.16800
C1150       C  0.27517436  0.41299483  0.80462648    -0.30800
H1151       H  0.30459359  0.41755001  0.81250128     0.16800
H1152       H  0.31144020  0.28624549  0.75014463     0.16800
H1153       H  0.43191696  0.41127224  0.68689609     0.16900
H1154       H  0.43775926  0.28079424  0.74950270     0.16800
C1155       C  0.33083653  0.37609500  0.74941211     0.30700
C1156       C  0.41058671  0.37270945  0.74919315     0.30700
C1157       C  0.35020446  0.35412278  0.72212016    -0.05500
C1158       C  0.35178470  0.41645509  0.74860617    -0.06300
C1159       C  0.34961332  0.35580038  0.77752067    -0.06100
C1160       C  0.39072686  0.35263069  0.72162604    -0.05500
C1161       C  0.39229950  0.41447905  0.74867249    -0.06300
C1162       C  0.38982770  0.35359422  0.77721077    -0.06200
C1163       C  0.40180659  0.33821805  0.69282355    -0.31500
N1164       N  0.36913948  0.33130142  0.67635076     0.15000
C1165       C  0.33766337  0.33958551  0.69434060    -0.31500
H1166       H  0.30790198  0.33760963  0.68684324     0.16900
C1167       C  0.40613434  0.45270902  0.74838536    -0.30500
N1168       N  0.37539852  0.47803798  0.74818130     0.13700
C1169       C  0.34196836  0.45620933  0.74825353    -0.30500
C1170       C  0.40070306  0.33845931  0.80539766    -0.30800
N1171       N  0.36861547  0.33407399  0.82416413     0.14200
H1172       H  0.43040525  0.33242996  0.81108945     0.16800
C1173       C  0.33726167  0.34318197  0.80631805    -0.30800
H1174       H  0.30728528  0.34313113  0.81393165     0.16800
H1175       H  0.31269591  0.46806857  0.74834183     0.16800
H1176       H  0.43119145  0.33527315  0.68372858     0.16900
H1177       H  0.43639105  0.46134082  0.74850991     0.16800
C1178       C  0.34235369  0.12500466  0.74876957     0.30700
C1179       C  0.42211636  0.12217157  0.74992276     0.30700
C1180       C  0.36153189  0.14506150  0.77643731    -0.05500
C1181       C  0.36086130  0.08337687  0.74906378    -0.06300
C1182       C  0.36325805  0.14453133  0.72115188    -0.06100
C1183       C  0.40190947  0.14335893  0.77725616    -0.05500
C1184       C  0.40136330  0.08160374  0.74968759    -0.06300
C1185       C  0.40382859  0.14321481  0.72175387    -0.06200
C1186       C  0.41271116  0.15756693  0.80577055    -0.31500
N1187       N  0.38008426  0.16673963  0.82232010     0.15000
C1188       C  0.34879472  0.16036439  0.80424320    -0.31500
H1189       H  0.31880472  0.16321446  0.81191296     0.16900
C1190       C  0.41129359  0.04181450  0.74940112    -0.30500
N1191       N  0.37793798  0.01988784  0.74857328     0.13700
C1192       C  0.34715545  0.04513346  0.74835381    -0.30500
C1193       C  0.41691437  0.15608304  0.69314521    -0.30800
N1194       N  0.38573910  0.16329102  0.67503155     0.14200
H1195       H  0.44682290  0.15750204  0.68512397     0.16800
C1196       C  0.35284888  0.15751207  0.69208076    -0.30800
H1197       H  0.32365795  0.16005616  0.68314545     0.16800
H1198       H  0.31693885  0.03644609  0.74762566     0.16800
H1199       H  0.44189626  0.15926860  0.81456712     0.16900
H1200       H  0.44057859  0.03000311  0.74967449     0.16800
C1201       C  0.24122030  0.42868200  0.85502348     0.00500
C1202       C  0.26923143  0.41198676  0.87464008    -0.11300
C1203       C  0.26782444  0.41801882  0.90685146     0.02800
C1204       C  0.23810401  0.44173266  0.92044390     0.00500
C1205       C  0.45949522  0.45761080  0.90082071    -0.11300
C1206       C  0.46114561  0.45181544  0.86852782     0.02700
H1207       H  0.29233267  0.39395485  0.86475464     0.15600
H1208       H  0.43711145  0.47689217  0.91038859     0.15600
C1209       C  0.43348976  0.47255474  0.84949837     0.37300
C1210       C  0.29868575  0.40155644  0.92526032     0.37200
N1211       N  0.41158601  0.48913172  0.83396152    -0.43000
N1212       N  0.32347353  0.39006105  0.94081712    -0.43000
C1213       C  0.24044191  0.42721345  0.64326537     0.00500
C1214       C  0.47168694  0.46195892  0.63412240    -0.11300
C1215       C  0.46619957  0.47052009  0.60259683     0.02800
C1216       C  0.23215035  0.44528904  0.57938264     0.00500
C1217       C  0.25005886  0.41001039  0.58870879    -0.11300
C1218       C  0.25247082  0.40009477  0.62025649     0.02700
H1219       H  0.46044322  0.48192049  0.65177412     0.15600
H1220       H  0.26158134  0.38987136  0.57129353     0.15600
C1221       C  0.26312764  0.36046417  0.62849404     0.37300
C1222       C  0.44451618  0.50569842  0.59498304     0.37200
N1223       N  0.26967579  0.32810063  0.63503126    -0.43000
N1224       N  0.42657574  0.03364612  0.58919127    -0.43000
C1225       C  0.28109048  0.06445340  0.92044292     0.00500
C1226       C  0.26337671  0.09947239  0.91035994    -0.11300
C1227       C  0.25804280  0.10669372  0.87859237     0.02800
C1228       C  0.26741324  0.07715724  0.85663869     0.00500
C1229       C  0.53833473  0.04403839  0.86640626    -0.11300
C1230       C  0.54642796  0.03816929  0.89780338     0.02700
H1231       H  0.25396258  0.12122442  0.92730512     0.15600
H1232       H  0.54884781  0.02301586  0.84924591     0.15600
C1233       C  0.57079491  0.00508199  0.90586359     0.37300
C1234       C  0.24663766  0.14566723  0.86885228     0.37200
N1235       N  0.59136572  0.47918159  0.91189751    -0.43000
N1236       N  0.23866976  0.17737140  0.86125056    -0.43000
C1237       C  0.27264877  0.06554783  0.57897026     0.00500
C1238       C  0.29314731  0.04104414  0.59945522    -0.11300
C1239       C  0.28901906  0.04524249  0.63154625     0.02800
C1240       C  0.26378753  0.07423304  0.64389689     0.00500
C1241       C  0.49503107  0.10039480  0.62361968    -0.11300
C1242       C  0.49959506  0.09646421  0.59134134     0.02700
H1243       H  0.31078954  0.01691809  0.59045733     0.15600
H1244       H  0.47729892  0.12416576  0.63306745     0.15600
C1245       C  0.48122721  0.12477913  0.57130641     0.37300
C1246       C  0.30989206  0.01845584  0.65141435     0.37200
N1247       N  0.46725418  0.14749311  0.55478988    -0.43000
N1248       N  0.32689124  0.99715740  0.66731103    -0.43000
C1249       C  0.35960899  0.31242672  0.92307577     0.00500
C1250       C  0.39560467  0.32206544  0.90925628    -0.11300
C1251       C  0.39988960  0.32818263  0.87730684     0.02800
C1252       C  0.36684626  0.32670237  0.85766760     0.00500
C1253       C  0.33033558  0.31938361  0.87219847    -0.11300
C1254       C  0.32651192  0.31179846  0.90406242     0.02700
H1255       H  0.42159174  0.32261733  0.92329933     0.15600
H1256       H  0.30415923  0.31783494  0.85873369     0.15600
C1257       C  0.28828106  0.30227098  0.91621457     0.37300
C1258       C  0.43940329  0.33367955  0.86661179     0.37200
N1259       N  0.25772857  0.29445440  0.92598310    -0.43000
N1260       N  0.47175501  0.33681948  0.85920165    -0.43000
C1261       C  0.36714924  0.32235360  0.64395548     0.00500
C1262       C  0.34784694  0.28826406  0.63486623    -0.11300
C1263       C  0.34177429  0.28042368  0.60352529     0.02800
C1264       C  0.35856478  0.30518003  0.58053714     0.00500
C1265       C  0.37726963  0.33973410  0.58964714    -0.11300
C1266       C  0.37958294  0.34948971  0.62113175     0.02700
H1267       H  0.33619155  0.26858185  0.65247394     0.14800
H1268       H  0.38870348  0.35970764  0.57215954     0.15600
C1269       C  0.38940737  0.38928951  0.62913653     0.37300
C1270       C  0.31797798  0.24687886  0.59593167     0.37200
N1271       N  0.39504128  0.42204483  0.63476568    -0.43000
N1272       N  0.29825479  0.22030896  0.59035418    -0.43000
C1273       C  0.37411374  0.18526431  0.91979709     0.00500
C1274       C  0.35147500  0.20827479  0.89973713    -0.11300
C1275       C  0.35349363  0.20285552  0.86765744     0.02800
C1276       C  0.37816728  0.17358963  0.85517153     0.00500
C1277       C  0.39896506  0.14886488  0.87533669    -0.11300
C1278       C  0.39710436  0.15459350  0.90754381     0.02700
H1279       H  0.33281768  0.23118145  0.90918851     0.15600
H1280       H  0.41596636  0.12460435  0.86587758     0.15600
C1281       C  0.41613402  0.12699032  0.92769212     0.37300
C1282       C  0.33043049  0.22762461  0.84771572     0.37200
N1283       N  0.43031888  0.10426736  0.94406827    -0.43000
N1284       N  0.31192703  0.24637363  0.83093760    -0.43000
C1285       C  0.38814385  0.18146828  0.57742030     0.00500
C1286       C  0.40781028  0.20726791  0.59729133    -0.11300
C1287       C  0.40790226  0.20105181  0.62930213     0.02800
C1288       C  0.38751072  0.16901122  0.64203000     0.00500
C1289       C  0.37020825  0.14147127  0.62203497    -0.11300
C1290       C  0.37119146  0.14727415  0.58973367     0.02700
H1291       H  0.42152915  0.23352581  0.58795141     0.15600
H1292       H  0.35667562  0.11530308  0.63165617     0.15600
C1293       C  0.35863414  0.11668795  0.56913281     0.37300
C1294       C  0.42780146  0.22866522  0.64891709     0.37200
N1295       N  0.35069703  0.09242303  0.55153611    -0.43000
N1296       N  0.44395350  0.25043521  0.66484933    -0.43000
O1297       O  0.41100058  0.70961034  0.03070292    -0.72200
O1298       O  0.39298283  0.79240427  0.46822642    -0.73200
O1299       O  0.39478351  0.78850934  0.03504684    -0.61800
O1300       O  0.40604175  0.71253940  0.46348724    -0.70300
O1301       O  0.34266824  0.70003540  0.46728395    -0.69800
O1302       O  0.33093906  0.77819146  0.03526587    -0.61100
O1303       O  0.32986770  0.77978344  0.46744795    -0.73600
O1304       O  0.34743423  0.69857012  0.03482089    -0.72300
Cu1305     Cu  0.40329565  0.75112140  0.49926899     1.04600
Cu1306     Cu  0.33548318  0.73874521  0.00131704     1.04300
C1307       C  0.38205734  0.69492219  0.04526170     0.94000
C1308       C  0.36009688  0.79569438  0.45511751     0.93100
C1309       C  0.36124412  0.79183943  0.04809052     0.85200
C1310       C  0.37493938  0.69761027  0.45250250     0.91500
O1311       O  0.48718339  0.55527420  0.03253951    -0.72200
O1312       O  0.46339401  0.97806514  0.46467203    -0.73200
O1313       O  0.46053307  0.97916321  0.03356955    -0.61800
O1314       O  0.49127996  0.55412614  0.46514483    -0.70300
O1315       O  0.30169347  0.53095293  0.46639816    -0.69800
O1316       O  0.27092556  0.95570736  0.03412080    -0.61100
O1317       O  0.27378140  0.95543901  0.46669138    -0.73600
O1318       O  0.29743315  0.53161874  0.03437952    -0.72300
Cu1319     Cu  0.47349423  0.51736019  0.99890102     1.04600
Cu1320     Cu  0.28796897  0.49273400  0.00043436     1.04300
C1321       C  0.26970446  0.55211845  0.04633330     0.94000
C1322       C  0.24124743  0.95767140  0.45275788     0.93100
C1323       C  0.23729932  0.95917489  0.04685172     0.85200
C1324       C  0.27525898  0.55101476  0.45293736     0.91500
C1325       C  0.46744880  0.62257486  0.25043924     0.30700
C1326       C  0.29716433  0.62544501  0.24919798     0.30700
C1327       C  0.48798733  0.60255128  0.22232452    -0.05500
C1328       C  0.48554577  0.66438081  0.25004558    -0.06300
C1329       C  0.48813466  0.60326811  0.27853067    -0.06100
C1330       C  0.27838556  0.60406560  0.22217982    -0.05500
C1331       C  0.27604869  0.66600512  0.24942186    -0.06300
C1332       C  0.27866993  0.60421708  0.27704807    -0.06200
C1333       C  0.29168477  0.58912546  0.19448716    -0.31500
N1334       N  0.26078615  0.58031378  0.17682635     0.15000
C1335       C  0.47774137  0.58732061  0.19371902    -0.31500
H1336       H  0.44857669  0.58397919  0.18495424     0.16900
C1337       C  0.28596942  0.70570969  0.24931767    -0.30500
N1338       N  0.25268252  0.72803202  0.24990800     0.13700
C1339       C  0.47182313  0.70293087  0.25037089    -0.30500
C1340       C  0.29272388  0.58996309  0.30450022    -0.30800
N1341       N  0.26245100  0.58342299  0.32393422     0.14200
H1342       H  0.32292062  0.58760968  0.31109969     0.16800
C1343       C  0.47878960  0.59041007  0.30838308    -0.30800
H1344       H  0.44997203  0.58835694  0.31864821     0.16800
H1345       H  0.44157862  0.71187154  0.25093610     0.16800
H1346       H  0.32164603  0.58749675  0.18658674     0.16900
H1347       H  0.31528840  0.71721966  0.24884572     0.16800
C1348       C  0.28551332  0.87567504  0.24910911     0.30700
C1349       C  0.45583233  0.87244075  0.24938431     0.30700
C1350       C  0.26534429  0.89467340  0.22080855    -0.05500
C1351       C  0.26745718  0.83374757  0.24976543    -0.06300
C1352       C  0.26469218  0.89618088  0.27670942    -0.06100
C1353       C  0.47488451  0.89322209  0.22142421    -0.05500
C1354       C  0.47696828  0.83200717  0.24968259    -0.06300
C1355       C  0.47432663  0.89413411  0.27689004    -0.06200
C1356       C  0.46183927  0.90874944  0.19394787    -0.31500
N1357       N  0.24292478  0.91772223  0.17578030     0.15000
C1358       C  0.27584829  0.91000229  0.19202543    -0.31500
H1359       H  0.30514023  0.91336201  0.18288897     0.16900
C1360       C  0.46706601  0.79231781  0.24972576    -0.30500
N1361       N  0.25035980  0.77003543  0.24995307     0.13700
C1362       C  0.28119552  0.79517694  0.25002997    -0.30500
C1363       C  0.46137569  0.90914804  0.30491923    -0.30800
N1364       N  0.24248629  0.91993845  0.32206690     0.14200
H1365       H  0.43156773  0.90935436  0.31320393     0.16800
C1366       C  0.27517124  0.91300082  0.30462520    -0.30800
H1367       H  0.30459057  0.91755692  0.31249947     0.16800
H1368       H  0.31143825  0.78624728  0.25014771     0.16800
H1369       H  0.43191360  0.91127154  0.18689664     0.16900
H1370       H  0.43775718  0.78079506  0.24950488     0.16800
C1371       C  0.33083378  0.87609658  0.24941291     0.30700
C1372       C  0.41058396  0.87270989  0.24919374     0.30700
C1373       C  0.35020125  0.85412306  0.22212137    -0.05500
C1374       C  0.35178248  0.91645629  0.24860581    -0.06300
C1375       C  0.34961063  0.85580289  0.27752202    -0.06100
C1376       C  0.39072369  0.85263033  0.22162715    -0.05500
C1377       C  0.39229723  0.91447950  0.24867211    -0.06300
C1378       C  0.38982499  0.85359606  0.27721185    -0.06200
C1379       C  0.40180305  0.83821789  0.19282452    -0.31500
N1380       N  0.36913572  0.83130204  0.17635180     0.15000
C1381       C  0.33765979  0.83958636  0.19434170    -0.31500
H1382       H  0.30789838  0.83761104  0.18684416     0.16900
C1383       C  0.40613296  0.95270895  0.24838467    -0.30500
N1384       N  0.37539779  0.97803846  0.24818045     0.13700
C1385       C  0.34196703  0.95621074  0.24825285    -0.30500
C1386       C  0.40070078  0.83846214  0.30539895    -0.30800
N1387       N  0.36861351  0.83407796  0.32416590     0.14200
H1388       H  0.43040304  0.83243278  0.31109055     0.16800
C1389       C  0.33725943  0.84318626  0.30632007    -0.30800
H1390       H  0.30728323  0.84313687  0.31393422     0.16800
H1391       H  0.31269488  0.96807073  0.24834143     0.16800
H1392       H  0.43118782  0.83527270  0.18372942     0.16900
H1393       H  0.43638981  0.96134008  0.24850943     0.16800
C1394       C  0.34235099  0.62500512  0.24877024     0.30700
C1395       C  0.42211366  0.62217335  0.24992269     0.30700
C1396       C  0.36152917  0.64506330  0.27643729    -0.05500
C1397       C  0.36085924  0.58337744  0.24906549    -0.06300
C1398       C  0.36325486  0.64453104  0.22115190    -0.06100
C1399       C  0.40190685  0.64336146  0.27725582    -0.05500
C1400       C  0.40136131  0.58160518  0.24968873    -0.06300
C1401       C  0.40382532  0.64321525  0.22175368    -0.06200
C1402       C  0.41270848  0.65756917  0.30577031    -0.31500
N1403       N  0.38008151  0.66674101  0.32232002     0.15000
C1404       C  0.34879191  0.66036540  0.30424335    -0.31500
H1405       H  0.31880195  0.66321453  0.31191346     0.16900
C1406       C  0.41129270  0.54181619  0.24940274    -0.30500
N1407       N  0.37793768  0.51988856  0.24857581     0.13700
C1408       C  0.34715442  0.54513351  0.24835651    -0.30500
C1409       C  0.41691090  0.65608570  0.19314570    -0.30800
N1410       N  0.38573554  0.66329419  0.17503226     0.14200
H1411       H  0.44681946  0.65750557  0.18512461     0.16800
C1412       C  0.35284539  0.65751347  0.19208126    -0.30800
H1413       H  0.32365439  0.66005760  0.18314607     0.16800
H1414       H  0.31693798  0.53644542  0.24762869     0.16800
H1415       H  0.44189357  0.65927077  0.31456702     0.16900
H1416       H  0.44057800  0.53000559  0.24967549     0.16800
C1417       C  0.24121814  0.92868941  0.35502198     0.00500
C1418       C  0.26923152  0.91199584  0.37463738    -0.11300
C1419       C  0.26782566  0.91802654  0.40684879     0.02800
C1420       C  0.23810358  0.94173679  0.42044283     0.00500
C1421       C  0.45949300  0.95761345  0.40082110    -0.11300
C1422       C  0.46114210  0.95181932  0.36852802     0.02700
H1423       H  0.29233342  0.89396544  0.36475110     0.15600
H1424       H  0.43710783  0.97689217  0.41039023     0.15600
C1425       C  0.43348209  0.97255574  0.34950044     0.37300
C1426       C  0.29868882  0.90156484  0.42525604     0.37200
N1427       N  0.41157420  0.98913057  0.33396588    -0.43000
N1428       N  0.32347779  0.89006919  0.44081151    -0.43000
C1429       C  0.24043802  0.92721299  0.14326592     0.00500
C1430       C  0.47168396  0.96195918  0.13412309    -0.11300
C1431       C  0.46619554  0.97051997  0.10259759     0.02800
C1432       C  0.23214533  0.94528807  0.07938334     0.00500
C1433       C  0.25005232  0.91000854  0.08870947    -0.11300
C1434       C  0.25246421  0.90009293  0.12025718     0.02700
H1435       H  0.46044136  0.98192130  0.15177488     0.15600
H1436       H  0.26157350  0.88986880  0.07129419     0.15600
C1437       C  0.26311809  0.86046140  0.12849497     0.37300
C1438       C  0.44451118  0.00569780  0.09498396     0.37200
N1439       N  0.26966411  0.82809738  0.13503226    -0.43000
N1440       N  0.42658496  0.53365121  0.08919044    -0.43000
C1441       C  0.28108815  0.56445368  0.42044167     0.00500
C1442       C  0.26337803  0.59947473  0.41035928    -0.11300
C1443       C  0.25804154  0.60669580  0.37859198     0.02800
C1444       C  0.26740668  0.57715766  0.35663820     0.00500
C1445       C  0.53832283  0.54403544  0.36640512    -0.11300
C1446       C  0.54641790  0.53816596  0.39780174     0.02700
H1447       H  0.25396837  0.62122834  0.42730475     0.15600
H1448       H  0.54883131  0.52301092  0.34924455     0.15600
C1449       C  0.57077993  0.50507481  0.40586131     0.37300
C1450       C  0.24663732  0.64566978  0.36885236     0.37200
N1451       N  0.59138053  0.97919192  0.41189965    -0.43000
N1452       N  0.23866922  0.67737422  0.36125142    -0.43000
C1453       C  0.27264940  0.56554956  0.07897028     0.00500
C1454       C  0.29314560  0.54104421  0.09945559    -0.11300
C1455       C  0.28901675  0.54524262  0.13154665     0.02800
C1456       C  0.26378716  0.57423503  0.14389694     0.00500
C1457       C  0.49503309  0.60039790  0.12361968    -0.11300
C1458       C  0.49959730  0.59646728  0.09134138     0.02700
H1459       H  0.31078598  0.51691667  0.09045791     0.15600
H1460       H  0.47730238  0.62416998  0.13306745     0.15600
C1461       C  0.48123126  0.62478385  0.07130698     0.37300
C1462       C  0.30988627  0.51845370  0.15141522     0.37200
N1463       N  0.46725914  0.64749995  0.05479178    -0.43000
N1464       N  0.32688236  0.49715337  0.16731244    -0.43000
C1465       C  0.35960851  0.81242828  0.42307758     0.00500
C1466       C  0.39560404  0.82206749  0.40925795    -0.11300
C1467       C  0.39988859  0.82818547  0.37730844     0.02800
C1468       C  0.36684492  0.82670607  0.35766940     0.00500
C1469       C  0.33033453  0.81938718  0.37220049    -0.11300
C1470       C  0.32651131  0.81180089  0.40406431     0.02700
H1471       H  0.42159126  0.82261876  0.42330085     0.15600
H1472       H  0.30415805  0.81783890  0.35873583     0.15600
C1473       C  0.28828060  0.80227252  0.41621603     0.37300
C1474       C  0.43940214  0.83368219  0.36661300     0.37200
N1475       N  0.25772790  0.79445487  0.42598352    -0.43000
N1476       N  0.47175378  0.83682214  0.35920259    -0.43000
C1477       C  0.36714515  0.82235346  0.14395673     0.00500
C1478       C  0.34784270  0.78826374  0.13486816    -0.11300
C1479       C  0.34177213  0.78042118  0.10352730     0.02800
C1480       C  0.35856395  0.80517638  0.08053889     0.00500
C1481       C  0.37726771  0.83973124  0.08964822    -0.11300
C1482       C  0.37957986  0.84948841  0.12113253     0.02700
H1483       H  0.33618680  0.76858238  0.15247626     0.14800
H1484       H  0.38870195  0.85970402  0.07216023     0.15600
C1485       C  0.38940448  0.88928850  0.12913631     0.37300
C1486       C  0.31797793  0.74687455  0.09593421     0.37200
N1487       N  0.39503862  0.92204402  0.13476458    -0.43000
N1488       N  0.29825676  0.72030277  0.09035759    -0.43000
C1489       C  0.37411272  0.68526481  0.41979670     0.00500
C1490       C  0.35147243  0.70827453  0.39973734    -0.11300
C1491       C  0.35349051  0.70285560  0.36765769     0.02800
C1492       C  0.37816463  0.67359032  0.35517143     0.00500
C1493       C  0.39896397  0.64886622  0.37533611    -0.11300
C1494       C  0.39710451  0.65459523  0.40754316     0.02700
H1495       H  0.33281496  0.73118092  0.40918908     0.15600
H1496       H  0.41596607  0.62460645  0.36587670     0.15600
C1497       C  0.41613767  0.62699465  0.42769160     0.37300
C1498       C  0.33042746  0.72762552  0.34771645     0.37200
N1499       N  0.43032510  0.60427462  0.44406881    -0.43000
N1500       N  0.31192414  0.74637576  0.33093904    -0.43000
C1501       C  0.38814544  0.68146704  0.07742045     0.00500
C1502       C  0.40781197  0.70726696  0.09729127    -0.11300
C1503       C  0.40790193  0.70105257  0.12930238     0.02800
C1504       C  0.38750757  0.66901396  0.14203067     0.00500
C1505       C  0.37020510  0.64147368  0.12203592    -0.11300
C1506       C  0.37119108  0.64727438  0.08973445     0.02700
H1507       H  0.42153261  0.73352361  0.08795086     0.15600
H1508       H  0.35667093  0.61530649  0.13165745     0.15600
C1509       C  0.35863496  0.61668719  0.06913404     0.37300
C1510       C  0.42780284  0.72866507  0.14891708     0.37200
N1511       N  0.35069924  0.59242159  0.05153751    -0.43000
N1512       N  0.44395654  0.75043388  0.16484925    -0.43000
O1513       O  0.41100004  0.70960992  0.53070285    -0.72200
O1514       O  0.39298303  0.79240481  0.96822656    -0.73200
O1515       O  0.39478288  0.78850924  0.53504664    -0.61800
O1516       O  0.40604169  0.71253976  0.96348713    -0.70300
O1517       O  0.34266818  0.70003583  0.96728421    -0.69800
O1518       O  0.33093849  0.77819109  0.53526546    -0.61100
O1519       O  0.32986788  0.77978394  0.96744827    -0.73600
O1520       O  0.34743374  0.69856954  0.53482064    -0.72300
Cu1521     Cu  0.40329600  0.75112176  0.99926904     1.04600
Cu1522     Cu  0.33548290  0.73874473  0.50131670     1.04300
C1523       C  0.38205681  0.69492159  0.54526152     0.94000
C1524       C  0.36009705  0.79569479  0.95511768     0.93100
C1525       C  0.36124341  0.79183932  0.54809017     0.85200
C1526       C  0.37493918  0.69761066  0.95250255     0.91500
O1527       O  0.48718313  0.55527420  0.53253936    -0.72200
O1528       O  0.46339362  0.97806589  0.96467175    -0.73200
O1529       O  0.46053377  0.97916253  0.53356955    -0.61800
O1530       O  0.49128075  0.55412615  0.96514483    -0.70300
O1531       O  0.30169403  0.53095212  0.96639829    -0.69800
O1532       O  0.27092683  0.95570766  0.53412070    -0.61100
O1533       O  0.27378031  0.95543874  0.96669146    -0.73600
O1534       O  0.29743291  0.53161940  0.53437925    -0.72300
Cu1535     Cu  0.47349418  0.51735994  0.49890104     1.04600
Cu1536     Cu  0.28796904  0.49273458  0.50043411     1.04300
C1537       C  0.26970401  0.55211880  0.54633304     0.94000
C1538       C  0.24124650  0.95767168  0.95275779     0.93100
C1539       C  0.23730054  0.95917473  0.54685164     0.85200
C1540       C  0.27525989  0.55101435  0.95293741     0.91500
C1541       C  0.46744864  0.62257430  0.75043942     0.30700
C1542       C  0.29716419  0.62544456  0.74919784     0.30700
C1543       C  0.48798703  0.60255109  0.72232444    -0.05500
C1544       C  0.48554560  0.66438028  0.75004608    -0.06300
C1545       C  0.48813466  0.60326712  0.77853066    -0.06100
C1546       C  0.27838519  0.60406565  0.72217956    -0.05500
C1547       C  0.27604858  0.66600474  0.74942222    -0.06300
C1548       C  0.27866996  0.60421608  0.77704781    -0.06200
C1549       C  0.29168418  0.58912587  0.69448674    -0.31500
N1550       N  0.26078545  0.58031437  0.67682601     0.15000
C1551       C  0.47774090  0.58732063  0.69371889    -0.31500
H1552       H  0.44857617  0.58397908  0.68495422     0.16900
C1553       C  0.28596933  0.70570933  0.74931794    -0.30500
N1554       N  0.25268243  0.72803169  0.74990844     0.13700
C1555       C  0.47182295  0.70293036  0.75037143    -0.30500
C1556       C  0.29272415  0.58996159  0.80449977    -0.30800
N1557       N  0.26245150  0.58342138  0.82393396     0.14200
H1558       H  0.32292099  0.58760815  0.81109906     0.16800
C1559       C  0.47878986  0.59040906  0.80838314    -0.30800
H1560       H  0.44997240  0.58835614  0.81864847     0.16800
H1561       H  0.44157847  0.71187101  0.75093663     0.16800
H1562       H  0.32164538  0.58749716  0.68658619     0.16900
H1563       H  0.31528829  0.71721931  0.74884565     0.16800
C1564       C  0.28551334  0.87567454  0.74910912     0.30700
C1565       C  0.45583235  0.87244037  0.74938414     0.30700
C1566       C  0.26534448  0.89467300  0.72080853    -0.05500
C1567       C  0.26745714  0.83374715  0.74976537    -0.06300
C1568       C  0.26469208  0.89618033  0.77670944    -0.06100
C1569       C  0.47488467  0.89322172  0.72142408    -0.05500
C1570       C  0.47696823  0.83200674  0.74968247    -0.06300
C1571       C  0.47432658  0.89413367  0.77688993    -0.06200
C1572       C  0.46183962  0.90874921  0.69394773    -0.31500
N1573       N  0.24292533  0.91772216  0.67578026     0.15000
C1574       C  0.27584870  0.91000200  0.69202550    -0.31500
H1575       H  0.30514072  0.91336166  0.68288917     0.16900
C1576       C  0.46706592  0.79231739  0.74972577    -0.30500
N1577       N  0.25035971  0.77003509  0.74995328     0.13700
C1578       C  0.28119545  0.79517655  0.75003016    -0.30500
C1579       C  0.46137557  0.90914777  0.80491903    -0.30800
N1580       N  0.24248586  0.91993814  0.82206681     0.14200
H1581       H  0.43156756  0.90935430  0.81320361     0.16800
C1582       C  0.27517092  0.91300028  0.80462529    -0.30800
H1583       H  0.30459019  0.91755634  0.81249972     0.16800
H1584       H  0.31143816  0.78624686  0.75014808     0.16800
H1585       H  0.43191398  0.91127137  0.68689636     0.16900
H1586       H  0.43775707  0.78079468  0.74950484     0.16800
C1587       C  0.33083382  0.87609599  0.74941287     0.30700
C1588       C  0.41058398  0.87270947  0.74919354     0.30700
C1589       C  0.35020126  0.85412238  0.72212131    -0.05500
C1590       C  0.35178244  0.91645575  0.74860568    -0.06300
C1591       C  0.34961073  0.85580234  0.77752194    -0.06100
C1592       C  0.39072372  0.85262983  0.72162696    -0.05500
C1593       C  0.39229718  0.91447905  0.74867190    -0.06300
C1594       C  0.38982509  0.85359562  0.77721172    -0.06200
C1595       C  0.40180297  0.83821769  0.69282419    -0.31500
N1596       N  0.36913560  0.83130173  0.67635154     0.15000
C1597       C  0.33765974  0.83958577  0.69434162    -0.31500
H1598       H  0.30789830  0.83761040  0.68684419     0.16900
C1599       C  0.40613284  0.95270853  0.74838415    -0.30500
N1600       N  0.37539764  0.97803802  0.74817977     0.13700
C1601       C  0.34196691  0.95621020  0.74825238    -0.30500
C1602       C  0.40070090  0.83846184  0.80539889    -0.30800
N1603       N  0.36861364  0.83407765  0.82416586     0.14200
H1604       H  0.43040316  0.83243247  0.81109049     0.16800
C1605       C  0.33725955  0.84318579  0.80632001    -0.30800
H1606       H  0.30728335  0.84313642  0.81393418     0.16800
H1607       H  0.31269473  0.96807012  0.74834080     0.16800
H1608       H  0.43118772  0.83527277  0.68372893     0.16900
H1609       H  0.43638967  0.96133974  0.74850877     0.16800
C1610       C  0.34235086  0.62500463  0.74876995     0.30700
C1611       C  0.42211351  0.62217285  0.74992268     0.30700
C1612       C  0.36152889  0.64506217  0.77643733    -0.05500
C1613       C  0.36085911  0.58337692  0.74906460    -0.06300
C1614       C  0.36325487  0.64453126  0.72115196    -0.06100
C1615       C  0.40190652  0.64336036  0.77725602    -0.05500
C1616       C  0.40136117  0.58160467  0.74968801    -0.06300
C1617       C  0.40382535  0.64321550  0.72175388    -0.06200
C1618       C  0.41270800  0.65756828  0.80577049    -0.31500
N1619       N  0.38008092  0.66674020  0.82232008     0.15000
C1620       C  0.34879145  0.66036446  0.80424328    -0.31500
H1621       H  0.31880144  0.66321367  0.81191319     0.16900
C1622       C  0.41129255  0.54181566  0.74940184    -0.30500
N1623       N  0.37793756  0.51988801  0.74857468     0.13700
C1624       C  0.34715430  0.54513297  0.74835533    -0.30500
C1625       C  0.41691107  0.65608585  0.69314587    -0.30800
N1626       N  0.38573583  0.66329423  0.67503229     0.14200
H1627       H  0.44681967  0.65750561  0.68512481     0.16800
C1628       C  0.35284560  0.65751353  0.69208123    -0.30800
H1629       H  0.32365467  0.66005745  0.68314591     0.16800
H1630       H  0.31693786  0.53644487  0.74762754     0.16800
H1631       H  0.44189306  0.65927006  0.81456721     0.16900
H1632       H  0.44057784  0.53000508  0.74967491     0.16800
C1633       C  0.24121752  0.92868921  0.85502189     0.00500
C1634       C  0.26923084  0.91199582  0.87463740    -0.11300
C1635       C  0.26782500  0.91802687  0.90684875     0.02800
C1636       C  0.23810278  0.94173705  0.92044271     0.00500
C1637       C  0.45949249  0.95761344  0.90082083    -0.11300
C1638       C  0.46114172  0.95181919  0.86852775     0.02700
H1639       H  0.29233273  0.89396531  0.86475124     0.15600
H1640       H  0.43710713  0.97689201  0.91038990     0.15600
C1641       C  0.43348203  0.97255570  0.84949998     0.37300
C1642       C  0.29868828  0.90156529  0.92525594     0.37200
N1643       N  0.41157453  0.98913064  0.83396514    -0.43000
N1644       N  0.32347755  0.89006955  0.94081108    -0.43000
C1645       C  0.24043884  0.92721294  0.64326587     0.00500
C1646       C  0.47168446  0.96195873  0.63412297    -0.11300
C1647       C  0.46619611  0.97051934  0.60259746     0.02800
C1648       C  0.23214657  0.94528786  0.57938323     0.00500
C1649       C  0.25005378  0.91000849  0.58870948    -0.11300
C1650       C  0.25246538  0.90009294  0.62025722     0.02700
H1651       H  0.46044149  0.98192070  0.65177469     0.15600
H1652       H  0.26157517  0.88986875  0.57129430     0.15600
C1653       C  0.26311883  0.86046138  0.62849517     0.37300
C1654       C  0.44451072  0.00569647  0.59498374     0.37200
N1655       N  0.26966425  0.82809732  0.63503269    -0.43000
N1656       N  0.42658348  0.53364942  0.58919019    -0.43000
C1657       C  0.28108921  0.56445298  0.92044160     0.00500
C1658       C  0.26337901  0.59947388  0.91035897    -0.11300
C1659       C  0.25804233  0.60669457  0.87859163     0.02800
C1660       C  0.26740756  0.57715631  0.85663798     0.00500
C1661       C  0.53832378  0.54403438  0.86640505    -0.11300
C1662       C  0.54641892  0.53816506  0.89780172     0.02700
H1663       H  0.25396939  0.62122772  0.92730428     0.15600
H1664       H  0.54883233  0.52300981  0.84924453     0.15600
C1665       C  0.57078131  0.50507422  0.90586142     0.37300
C1666       C  0.24663774  0.64566833  0.86885174     0.37200
N1667       N  0.59138269  0.97919215  0.91189990    -0.43000
N1668       N  0.23866937  0.67737256  0.86125047    -0.43000
C1669       C  0.27264887  0.56555008  0.57896995     0.00500
C1670       C  0.29314514  0.54104485  0.59945530    -0.11300
C1671       C  0.28901601  0.54524312  0.63154636     0.02800
C1672       C  0.26378631  0.57423549  0.64389660     0.00500
C1673       C  0.49503229  0.60039820  0.62361931    -0.11300
C1674       C  0.49959669  0.59646761  0.59134101     0.02700
H1675       H  0.31078570  0.51691742  0.59045767     0.15600
H1676       H  0.47730143  0.62417020  0.63306703     0.15600
C1677       C  0.48123067  0.62478397  0.57130645     0.37300
C1678       C  0.30988518  0.51845398  0.65141501     0.37200
N1679       N  0.46725870  0.64749972  0.55479088    -0.43000
N1680       N  0.32688078  0.49715343  0.66731239    -0.43000
C1681       C  0.35960860  0.81242838  0.92307762     0.00500
C1682       C  0.39560408  0.82206777  0.90925798    -0.11300
C1683       C  0.39988864  0.82818554  0.87730844     0.02800
C1684       C  0.36684503  0.82670579  0.85766937     0.00500
C1685       C  0.33033467  0.81938664  0.87220042    -0.11300
C1686       C  0.32651144  0.81180057  0.90406429     0.02700
H1687       H  0.42159126  0.82261942  0.92330090     0.15600
H1688       H  0.30415825  0.81783805  0.85873571     0.15600
C1689       C  0.28828081  0.80227203  0.91621606     0.37300
C1690       C  0.43940215  0.83368252  0.86661297     0.37200
N1691       N  0.25772822  0.79445427  0.92598372    -0.43000
N1692       N  0.47175370  0.83682274  0.85920238    -0.43000
C1693       C  0.36714484  0.82235321  0.64395645     0.00500
C1694       C  0.34784235  0.78826350  0.63486786    -0.11300
C1695       C  0.34177160  0.78042102  0.60352699     0.02800
C1696       C  0.35856309  0.80517638  0.58053855     0.00500
C1697       C  0.37726684  0.83973124  0.58964790    -0.11300
C1698       C  0.37957936  0.84948823  0.62113222     0.02700
H1699       H  0.33618655  0.76858207  0.65247597     0.14800
H1700       H  0.38870093  0.85970411  0.57215991     0.15600
C1701       C  0.38940437  0.88928819  0.62913606     0.37300
C1702       C  0.31797747  0.74687437  0.59593380     0.37200
N1703       N  0.39503903  0.92204362  0.63476436    -0.43000
N1704       N  0.29825628  0.72030271  0.59035689    -0.43000
C1705       C  0.37411225  0.68526488  0.91979677     0.00500
C1706       C  0.35147128  0.70827388  0.89973737    -0.11300
C1707       C  0.35348923  0.70285468  0.86765770     0.02800
C1708       C  0.37816386  0.67358975  0.85517148     0.00500
C1709       C  0.39896377  0.64886629  0.87533624    -0.11300
C1710       C  0.39710448  0.65459563  0.90754324     0.02700
H1711       H  0.33281349  0.73118004  0.90918907     0.15600
H1712       H  0.41596626  0.62460673  0.86587694     0.15600
C1713       C  0.41613851  0.62699563  0.92769162     0.37300
C1714       C  0.33042580  0.72762422  0.84771642     0.37200
N1715       N  0.43032692  0.60427603  0.94406866    -0.43000
N1716       N  0.31192226  0.74637428  0.83093905    -0.43000
C1717       C  0.38814497  0.68146665  0.57742034     0.00500
C1718       C  0.40781094  0.70726711  0.59729106    -0.11300
C1719       C  0.40790149  0.70105272  0.62930216     0.02800
C1720       C  0.38750794  0.66901369  0.64203064     0.00500
C1721       C  0.37020612  0.64147287  0.62203598    -0.11300
C1722       C  0.37119176  0.64727347  0.58973447     0.02700
H1723       H  0.42153084  0.73352412  0.58795054     0.15600
H1724       H  0.35667275  0.61530532  0.63165762     0.15600
C1725       C  0.35863687  0.61668555  0.56913425     0.37300
C1726       C  0.42780231  0.72866557  0.64891659     0.37200
N1727       N  0.35070216  0.59241913  0.55153811    -0.43000
N1728       N  0.44395609  0.75043481  0.66484836    -0.43000
O1729       O  0.66099939  0.20961382  0.03070376    -0.72200
O1730       O  0.64298294  0.29240461  0.46822482    -0.73200
O1731       O  0.64478383  0.28851343  0.03504478    -0.61800
O1732       O  0.65604201  0.21253950  0.46348789    -0.70300
O1733       O  0.59266843  0.20003564  0.46728403    -0.69800
O1734       O  0.58093953  0.27819475  0.03526475    -0.61100
O1735       O  0.57986778  0.27978369  0.46744661    -0.73600
O1736       O  0.59743315  0.19857250  0.03482092    -0.72300
Cu1737     Cu  0.65329550  0.25112358  0.49926848     1.04600
Cu1738     Cu  0.58548287  0.23874665  0.00131645     1.04300
C1739       C  0.63205611  0.19492496  0.04526204     0.94000
C1740       C  0.61009701  0.29569401  0.45511583     0.93100
C1741       C  0.61124476  0.29184354  0.04808886     0.85200
C1742       C  0.62493994  0.19760983  0.45250302     0.91500
O1743       O  0.73718342  0.05527288  0.03254001    -0.72200
O1744       O  0.71339600  0.47806443  0.46467175    -0.73200
O1745       O  0.71053556  0.47916340  0.03356903    -0.61800
O1746       O  0.74128014  0.05412591  0.46514562    -0.70300
O1747       O  0.55169290  0.03095059  0.46639918    -0.69800
O1748       O  0.52092888  0.45570925  0.03411987    -0.61100
O1749       O  0.52378386  0.45544060  0.46669056    -0.73600
O1750       O  0.54743236  0.03161598  0.03438009    -0.72300
Cu1751     Cu  0.72349325  0.01736000  0.99890155     1.04600
Cu1752     Cu  0.53796698  0.99273186  0.00043512     1.04300
C1753       C  0.51970408  0.05211623  0.04633380     0.94000
C1754       C  0.49124912  0.45767071  0.45275794     0.93100
C1755       C  0.48730271  0.45917591  0.04685102     0.85200
C1756       C  0.52525932  0.05101361  0.45293833     0.91500
C1757       C  0.71745182  0.12257322  0.25043961     0.30700
C1758       C  0.54716728  0.12544468  0.24919751     0.30700
C1759       C  0.73799016  0.10254858  0.22232529    -0.05500
C1760       C  0.73554830  0.16437954  0.25004460    -0.06300
C1761       C  0.73813848  0.10326796  0.27853151    -0.06100
C1762       C  0.52838831  0.10406401  0.22217997    -0.05500
C1763       C  0.52605120  0.16600442  0.24942044    -0.06300
C1764       C  0.52867365  0.10421755  0.27704837    -0.06200
C1765       C  0.54168701  0.08912471  0.19448688    -0.31500
N1766       N  0.51078809  0.08031204  0.17682667     0.15000
C1767       C  0.72774373  0.08731731  0.19372010    -0.31500
H1768       H  0.69857884  0.08397511  0.18495589     0.16900
C1769       C  0.53597160  0.20570901  0.24931474    -0.30500
N1770       N  0.50268459  0.22803114  0.24990485     0.13700
C1771       C  0.72182531  0.20292960  0.25036889    -0.30500
C1772       C  0.54272860  0.08996340  0.30450023    -0.30800
N1773       N  0.51245643  0.08342320  0.32393487     0.14200
H1774       H  0.57292557  0.08760977  0.31109903     0.16800
C1775       C  0.72879457  0.09040990  0.30838422    -0.30800
H1776       H  0.69997731  0.08835624  0.31864985     0.16800
H1777       H  0.69158076  0.21187007  0.25093448     0.16800
H1778       H  0.57164805  0.08749716  0.18658581     0.16900
H1779       H  0.56529052  0.21721914  0.24884211     0.16800
C1780       C  0.53551610  0.37567399  0.24910833     0.30700
C1781       C  0.70583511  0.37244043  0.24938374     0.30700
C1782       C  0.51534710  0.39467365  0.22080829    -0.05500
C1783       C  0.51745964  0.33374664  0.24976340    -0.06300
C1784       C  0.51469529  0.39617852  0.27670950    -0.06100
C1785       C  0.72488731  0.39322280  0.22142404    -0.05500
C1786       C  0.72697070  0.33200652  0.24968087    -0.06300
C1787       C  0.72432973  0.39413226  0.27688997    -0.06200
C1788       C  0.71184220  0.40875023  0.19394762    -0.31500
N1789       N  0.49292783  0.41772242  0.17577983     0.15000
C1790       C  0.52585122  0.41000206  0.19202502    -0.31500
H1791       H  0.55514319  0.41336104  0.18288848     0.16900
C1792       C  0.71706814  0.29231713  0.24972325    -0.30500
N1793       N  0.50036182  0.27003458  0.24994989     0.13700
C1794       C  0.53119770  0.29517592  0.25002696    -0.30500
C1795       C  0.71137905  0.40914360  0.30492000    -0.30800
N1796       N  0.49248960  0.41993206  0.32206839     0.14200
H1797       H  0.68157108  0.40934983  0.31320469     0.16800
C1798       C  0.52517453  0.41299549  0.30462651    -0.30800
H1799       H  0.55459378  0.41755053  0.31250133     0.16800
H1800       H  0.56144036  0.28624610  0.25014445     0.16800
H1801       H  0.68191651  0.41127250  0.18689645     0.16900
H1802       H  0.68775922  0.28079455  0.24950249     0.16800
C1803       C  0.58083655  0.37609571  0.24941218     0.30700
C1804       C  0.66058673  0.37270995  0.24919342     0.30700
C1805       C  0.60020450  0.35412359  0.22212025    -0.05500
C1806       C  0.60178482  0.41645573  0.24860641    -0.06300
C1807       C  0.59961322  0.35580093  0.27752073    -0.06100
C1808       C  0.64072689  0.35263132  0.22162629    -0.05500
C1809       C  0.64229963  0.41447960  0.24867286    -0.06300
C1810       C  0.63982761  0.35359465  0.27721090    -0.06200
C1811       C  0.65180678  0.33821832  0.19282401    -0.31500
N1812       N  0.61913976  0.33130182  0.17635111     0.15000
C1813       C  0.58766351  0.33958619  0.19434071    -0.31500
H1814       H  0.55790218  0.33761033  0.18684321     0.16900
C1815       C  0.65613456  0.45270955  0.24838620    -0.30500
N1816       N  0.62539876  0.47803854  0.24818228     0.13700
C1817       C  0.59196856  0.45620998  0.24825420    -0.30500
C1818       C  0.65070286  0.33845939  0.30539768    -0.30800
N1819       N  0.61861524  0.33407421  0.32416409     0.14200
H1820       H  0.68040502  0.33242966  0.31108943     0.16800
C1821       C  0.58726148  0.34318246  0.30631805    -0.30800
H1822       H  0.55728512  0.34313172  0.31393168     0.16800
H1823       H  0.56269615  0.46806929  0.24834258     0.16800
H1824       H  0.68119170  0.33527307  0.18372922     0.16900
H1825       H  0.68639126  0.46134128  0.24851102     0.16800
C1826       C  0.59235392  0.12500511  0.24876983     0.30700
C1827       C  0.67211658  0.12217184  0.24992272     0.30700
C1828       C  0.61153231  0.14506237  0.27643730    -0.05500
C1829       C  0.61086146  0.08337728  0.24906447    -0.06300
C1830       C  0.61325817  0.14453123  0.22115190    -0.06100
C1831       C  0.65190992  0.14335974  0.27725599    -0.05500
C1832       C  0.65136346  0.08160408  0.24968806    -0.06300
C1833       C  0.65382869  0.14321457  0.22175372    -0.06200
C1834       C  0.66271177  0.15756746  0.30577045    -0.31500
N1835       N  0.63008497  0.16673998  0.32232013     0.15000
C1836       C  0.59879533  0.16036498  0.30424331    -0.31500
H1837       H  0.56880538  0.16321502  0.31191322     0.16900
C1838       C  0.66129371  0.04181485  0.24940158    -0.30500
N1839       N  0.62793805  0.01988824  0.24857400     0.13700
C1840       C  0.59715556  0.04513390  0.24835471    -0.30500
C1841       C  0.66691434  0.15608275  0.19314504    -0.30800
N1842       N  0.63573896  0.16329093  0.17503155     0.14200
H1843       H  0.69682286  0.15750167  0.18512371     0.16800
C1844       C  0.60284884  0.15751208  0.19208088    -0.30800
H1845       H  0.57365785  0.16005641  0.18314572     0.16800
H1846       H  0.56693894  0.03644658  0.24762665     0.16800
H1847       H  0.69189690  0.15926906  0.31456699     0.16900
H1848       H  0.69057869  0.03000341  0.24967459     0.16800
C1849       C  0.49122063  0.42868261  0.35502354     0.00500
C1850       C  0.51923131  0.41198660  0.37464022    -0.11300
C1851       C  0.51782407  0.41801834  0.40685166     0.02800
C1852       C  0.48810408  0.44173280  0.42044395     0.00500
C1853       C  0.70949585  0.45761046  0.40082100    -0.11300
C1854       C  0.71114609  0.45181513  0.36852814     0.02700
H1855       H  0.54233228  0.39395436  0.36475481     0.15600
H1856       H  0.68711200  0.47689169  0.41038892     0.15600
C1857       C  0.68348957  0.47255384  0.34949892     0.37300
C1858       C  0.54868472  0.40155517  0.42526082     0.37200
N1859       N  0.66158502  0.48913025  0.33396242    -0.43000
N1860       N  0.57347188  0.39005929  0.44081802    -0.43000
C1861       C  0.49044137  0.42721354  0.14326539     0.00500
C1862       C  0.72168623  0.46195916  0.13412252    -0.11300
C1863       C  0.71619888  0.47052055  0.10259697     0.02800
C1864       C  0.48214952  0.44528921  0.07938270     0.00500
C1865       C  0.50005784  0.41001043  0.08870879    -0.11300
C1866       C  0.50247006  0.40009479  0.12025646     0.02700
H1867       H  0.71044292  0.48192087  0.15177428     0.15600
H1868       H  0.51158011  0.38987136  0.07129347     0.15600
C1869       C  0.51312723  0.36046420  0.12849389     0.37300
C1870       C  0.69451670  0.50569971  0.09498325     0.37200
N1871       N  0.51967591  0.32810067  0.13503083    -0.43000
N1872       N  0.67657664  0.03364764  0.08919152    -0.43000
C1873       C  0.53108999  0.06445416  0.42044309     0.00500
C1874       C  0.51337620  0.09947321  0.41036034    -0.11300
C1875       C  0.50804244  0.10669488  0.37859280     0.02800
C1876       C  0.51741294  0.07715855  0.35663897     0.00500
C1877       C  0.78833342  0.04403947  0.36640636    -0.11300
C1878       C  0.79642649  0.03817004  0.39780341     0.02700
H1879       H  0.50396195  0.12122502  0.42730568     0.15600
H1880       H  0.79884632  0.02301699  0.34924591     0.15600
C1881       C  0.82079300  0.00508233  0.40586341     0.37300
C1882       C  0.49663745  0.14566854  0.36885296     0.37200
N1883       N  0.84136504  0.47918235  0.41189754    -0.43000
N1884       N  0.48866961  0.17737283  0.36125149    -0.43000
C1885       C  0.52264926  0.06554753  0.07897056     0.00500
C1886       C  0.54314773  0.04104381  0.09945556    -0.11300
C1887       C  0.53901962  0.04524234  0.13154660     0.02800
C1888       C  0.51378821  0.07423302  0.14389722     0.00500
C1889       C  0.74503184  0.10039415  0.12362013    -0.11300
C1890       C  0.74959575  0.09646365  0.09134179     0.02700
H1891       H  0.56078980  0.01691762  0.09045772     0.15600
H1892       H  0.72729978  0.12416513  0.13306799     0.15600
C1893       C  0.73122788  0.12477879  0.07130712     0.37300
C1894       C  0.55989274  0.01845582  0.15141478     0.37200
N1895       N  0.71725462  0.14749308  0.05479100    -0.43000
N1896       N  0.57689202  0.99715757  0.16731156    -0.43000
C1897       C  0.60960877  0.31242643  0.42307560     0.00500
C1898       C  0.64560435  0.32206557  0.40925621    -0.11300
C1899       C  0.64988926  0.32818293  0.37730680     0.02800
C1900       C  0.61684599  0.32670247  0.35766751     0.00500
C1901       C  0.58033535  0.31938356  0.37219831    -0.11300
C1902       C  0.57651174  0.31179816  0.40406221     0.02700
H1903       H  0.67159137  0.32261763  0.42329933     0.15600
H1904       H  0.55415900  0.31783491  0.35873350     0.15600
C1905       C  0.53828096  0.30227031  0.41621423     0.37300
C1906       C  0.68940287  0.33368037  0.36661184     0.37200
N1907       N  0.50772852  0.29445344  0.42598270    -0.43000
N1908       N  0.72175460  0.33682063  0.35920185    -0.43000
C1909       C  0.61714983  0.32235376  0.14395591     0.00500
C1910       C  0.59784769  0.28826415  0.13486676    -0.11300
C1911       C  0.59177518  0.28042359  0.10352583     0.02800
C1912       C  0.60856581  0.30517982  0.08053762     0.00500
C1913       C  0.62727063  0.33973392  0.08964759    -0.11300
C1914       C  0.62958362  0.34948979  0.12113216     0.02700
H1915       H  0.58619224  0.26858205  0.15247455     0.14800
H1916       H  0.63870446  0.35970742  0.07215996     0.15600
C1917       C  0.63940730  0.38928983  0.12913683     0.37300
C1918       C  0.56797878  0.24687879  0.09593239     0.37200
N1919       N  0.64504052  0.42204530  0.13476591    -0.43000
N1920       N  0.54825532  0.22030895  0.09035531    -0.43000
C1921       C  0.62411404  0.18526411  0.41979706     0.00500
C1922       C  0.60147601  0.20827519  0.39973706    -0.11300
C1923       C  0.60349481  0.20285606  0.36765740     0.02800
C1924       C  0.62816810  0.17358986  0.35517156     0.00500
C1925       C  0.64896524  0.14886454  0.37533672    -0.11300
C1926       C  0.64710416  0.15459288  0.40754388     0.02700
H1927       H  0.58281895  0.23118207  0.40918841     0.15600
H1928       H  0.66596615  0.12460374  0.36587760     0.15600
C1929       C  0.66613283  0.12698910  0.42769233     0.37300
C1930       C  0.58043206  0.22762541  0.34771560     0.37200
N1931       N  0.68031693  0.10426588  0.44406869    -0.43000
N1932       N  0.56192889  0.24637452  0.33093733    -0.43000
C1933       C  0.63814426  0.18146858  0.07742040     0.00500
C1934       C  0.65781130  0.20726767  0.09729150    -0.11300
C1935       C  0.65790289  0.20105153  0.12930231     0.02800
C1936       C  0.63751041  0.16901146  0.14203006     0.00500
C1937       C  0.62020707  0.14147216  0.12203497    -0.11300
C1938       C  0.62119069  0.14727505  0.08973370     0.02700
H1939       H  0.67153087  0.23352521  0.08795162     0.15600
H1940       H  0.60667355  0.11530438  0.13165608     0.15600
C1941       C  0.60863236  0.11668949  0.06913267     0.37300
C1942       C  0.67780248  0.22866442  0.14891750     0.37200
N1943       N  0.60069453  0.09242526  0.05153560    -0.43000
N1944       N  0.69395482  0.25043381  0.16485006    -0.43000
O1945       O  0.66099891  0.20961384  0.53070379    -0.72200
O1946       O  0.64298283  0.29240468  0.96822499    -0.73200
O1947       O  0.64478332  0.28851368  0.53504456    -0.61800
O1948       O  0.65604181  0.21253951  0.96348778    -0.70300
O1949       O  0.59266826  0.20003572  0.96728425    -0.69800
O1950       O  0.58093904  0.27819480  0.53526428    -0.61100
O1951       O  0.57986765  0.27978387  0.96744690    -0.73600
O1952       O  0.59743269  0.19857237  0.53482081    -0.72300
Cu1953     Cu  0.65329565  0.25112354  0.99926852     1.04600
Cu1954     Cu  0.58548272  0.23874656  0.50131618     1.04300
C1955       C  0.63205562  0.19492478  0.54526196     0.94000
C1956       C  0.61009689  0.29569411  0.95511603     0.93100
C1957       C  0.61124413  0.29184384  0.54808843     0.85200
C1958       C  0.62493963  0.19760985  0.95250306     0.91500
O1959       O  0.73718287  0.05527266  0.53253994    -0.72200
O1960       O  0.71339550  0.47806518  0.96467156    -0.73200
O1961       O  0.71053621  0.47916268  0.53356899    -0.61800
O1962       O  0.74128101  0.05412596  0.96514560    -0.70300
O1963       O  0.55169323  0.03094978  0.96639925    -0.69800
O1964       O  0.52092983  0.45570967  0.53411977    -0.61100
O1965       O  0.52378319  0.45543994  0.96669069    -0.73600
O1966       O  0.54743223  0.03161676  0.53437992    -0.72300
Cu1967     Cu  0.72349305  0.01735966  0.49890159     1.04600
Cu1968     Cu  0.53796737  0.99273243  0.50043504     1.04300
C1969       C  0.51970371  0.05211668  0.54633361     0.94000
C1970       C  0.49124864  0.45767068  0.95275784     0.93100
C1971       C  0.48730361  0.45917580  0.54685095     0.85200
C1972       C  0.52526003  0.05101321  0.95293829     0.91500
C1973       C  0.71745162  0.12257286  0.75043984     0.30700
C1974       C  0.54716710  0.12544427  0.74919735     0.30700
C1975       C  0.73798981  0.10254864  0.72232526    -0.05500
C1976       C  0.73554814  0.16437917  0.75004522    -0.06300
C1977       C  0.73813845  0.10326711  0.77853152    -0.06100
C1978       C  0.52838797  0.10406412  0.72217970    -0.05500
C1979       C  0.52605103  0.16600401  0.74942075    -0.06300
C1980       C  0.52867362  0.10421667  0.77704810    -0.06200
C1981       C  0.54168651  0.08912504  0.69448650    -0.31500
N1982       N  0.51078751  0.08031244  0.67682637     0.15000
C1983       C  0.72774319  0.08731761  0.69372001    -0.31500
H1984       H  0.69857826  0.08397532  0.68495595     0.16900
C1985       C  0.53597145  0.20570858  0.74931499    -0.30500
N1986       N  0.50268445  0.22803071  0.74990529     0.13700
C1987       C  0.72182521  0.20292927  0.75036952    -0.30500
C1988       C  0.54272876  0.08996205  0.80449978    -0.30800
N1989       N  0.51245677  0.08342171  0.82393458     0.14200
H1990       H  0.57292581  0.08760836  0.81109840     0.16800
C1991       C  0.72879482  0.09040885  0.80838424    -0.30800
H1992       H  0.69997769  0.08835551  0.81865008     0.16800
H1993       H  0.69158069  0.21186984  0.75093506     0.16800
H1994       H  0.57164751  0.08749747  0.68658534     0.16900
H1995       H  0.56529037  0.21721872  0.74884209     0.16800
C1996       C  0.53551610  0.37567350  0.74910831     0.30700
C1997       C  0.70583510  0.37244003  0.74938354     0.30700
C1998       C  0.51534725  0.39467314  0.72080821    -0.05500
C1999       C  0.51745965  0.33374615  0.74976342    -0.06300
C2000       C  0.51469516  0.39617812  0.77670938    -0.06100
C2001       C  0.72488745  0.39322230  0.72142385    -0.05500
C2002       C  0.72697070  0.33200612  0.74968075    -0.06300
C2003       C  0.72432963  0.39413192  0.77688979    -0.06200
C2004       C  0.71184253  0.40874994  0.69394745    -0.31500
N2005       N  0.49292832  0.41772234  0.67577981     0.15000
C2006       C  0.52585158  0.41000181  0.69202509    -0.31500
H2007       H  0.55514362  0.41336083  0.68288868     0.16900
C2008       C  0.71706813  0.29231675  0.74972324    -0.30500
N2009       N  0.50036177  0.27003413  0.74995010     0.13700
C2010       C  0.53119766  0.29517544  0.75002717    -0.30500
C2011       C  0.71137879  0.40914349  0.80491971    -0.30800
N2012       N  0.49248921  0.41993165  0.82206824     0.14200
H2013       H  0.68157074  0.40934995  0.81320424     0.16800
C2014       C  0.52517424  0.41299516  0.80462642    -0.30800
H2015       H  0.55459344  0.41755037  0.81250128     0.16800
H2016       H  0.56144034  0.28624560  0.75014485     0.16800
H2017       H  0.68191692  0.41127228  0.68689618     0.16900
H2018       H  0.68775923  0.28079419  0.74950248     0.16800
C2019       C  0.58083653  0.37609519  0.74941213     0.30700
C2020       C  0.66058670  0.37270948  0.74919323     0.30700
C2021       C  0.60020444  0.35412294  0.72212020    -0.05500
C2022       C  0.60178474  0.41645524  0.74860622    -0.06300
C2023       C  0.59961325  0.35580050  0.77752069    -0.06100
C2024       C  0.64072682  0.35263076  0.72162612    -0.05500
C2025       C  0.64229954  0.41447914  0.74867261    -0.06300
C2026       C  0.63982762  0.35359420  0.77721081    -0.06200
C2027       C  0.65180659  0.33821811  0.69282366    -0.31500
N2028       N  0.61913951  0.33130158  0.67635081     0.15000
C2029       C  0.58766337  0.33958566  0.69434063    -0.31500
H2030       H  0.55790199  0.33760977  0.68684327     0.16900
C2031       C  0.65613443  0.45270911  0.74838571    -0.30500
N2032       N  0.62539861  0.47803809  0.74818162     0.13700
C2033       C  0.59196844  0.45620950  0.74825369    -0.30500
C2034       C  0.65070293  0.33845912  0.80539767    -0.30800
N2035       N  0.61861529  0.33407400  0.82416414     0.14200
H2036       H  0.68040508  0.33242954  0.81108943     0.16800
C2037       C  0.58726154  0.34318222  0.80631808    -0.30800
H2038       H  0.55728518  0.34313166  0.81393175     0.16800
H2039       H  0.56269602  0.46806881  0.74834200     0.16800
H2040       H  0.68119148  0.33527316  0.68372876     0.16900
H2041       H  0.68639112  0.46134091  0.74851048     0.16800
C2042       C  0.59235375  0.12500468  0.74876950     0.30700
C2043       C  0.67211639  0.12217147  0.74992272     0.30700
C2044       C  0.61153196  0.14506142  0.77643728    -0.05500
C2045       C  0.61086127  0.08337685  0.74906361    -0.06300
C2046       C  0.61325816  0.14453137  0.72115186    -0.06100
C2047       C  0.65190952  0.14335880  0.77725616    -0.05500
C2048       C  0.65136327  0.08160366  0.74968743    -0.06300
C2049       C  0.65382869  0.14321480  0.72175385    -0.06200
C2050       C  0.66271117  0.15756666  0.80577063    -0.31500
N2051       N  0.63008425  0.16673933  0.82232014     0.15000
C2052       C  0.59879475  0.16036417  0.80424320    -0.31500
H2053       H  0.56880474  0.16321419  0.81191294     0.16900
C2054       C  0.66129351  0.04181440  0.74940089    -0.30500
N2055       N  0.62793784  0.01988779  0.74857303     0.13700
C2056       C  0.59715536  0.04513345  0.74835358    -0.30500
C2057       C  0.66691449  0.15608308  0.69314520    -0.30800
N2058       N  0.63573922  0.16329119  0.67503156     0.14200
H2059       H  0.69682303  0.15750199  0.68512394     0.16800
C2060       C  0.60284902  0.15751218  0.69208077    -0.30800
H2061       H  0.57365810  0.16005630  0.68314546     0.16800
H2062       H  0.56693873  0.03644612  0.74762545     0.16800
H2063       H  0.69189625  0.15926826  0.81456726     0.16900
H2064       H  0.69057845  0.03000298  0.74967430     0.16800
C2065       C  0.49122010  0.42868232  0.85502337     0.00500
C2066       C  0.51923099  0.41198676  0.87464002    -0.11300
C2067       C  0.51782395  0.41801872  0.90685141     0.02800
C2068       C  0.48810370  0.44173286  0.92044379     0.00500
C2069       C  0.70949518  0.45761071  0.90082072    -0.11300
C2070       C  0.71114552  0.45181522  0.86852785     0.02700
H2071       H  0.54233207  0.39395464  0.86475460     0.15600
H2072       H  0.68711134  0.47689200  0.91038858     0.15600
C2073       C  0.68348944  0.47255417  0.84949840     0.37300
C2074       C  0.54868508  0.40155599  0.92526032     0.37200
N2075       N  0.66158546  0.48913082  0.83396155    -0.43000
N2076       N  0.57347283  0.39006045  0.94081709    -0.43000
C2077       C  0.49044214  0.42721350  0.64326536     0.00500
C2078       C  0.72168686  0.46195890  0.63412242    -0.11300
C2079       C  0.71619958  0.47052014  0.60259685     0.02800
C2080       C  0.48215056  0.44528903  0.57938263     0.00500
C2081       C  0.50005913  0.41001040  0.58870880    -0.11300
C2082       C  0.50247113  0.40009480  0.62025650     0.02700
H2083       H  0.71044327  0.48192054  0.65177414     0.15600
H2084       H  0.51158161  0.38987139  0.57129353     0.15600
C2085       C  0.51312810  0.36046423  0.62849406     0.37300
C2086       C  0.69451646  0.50569863  0.59498304     0.37200
N2087       N  0.51967634  0.32810070  0.63503125    -0.43000
N2088       N  0.67657515  0.03364589  0.58919127    -0.43000
C2089       C  0.53109098  0.06445357  0.92044295     0.00500
C2090       C  0.51337719  0.09947251  0.91035994    -0.11300
C2091       C  0.50804314  0.10669376  0.87859237     0.02800
C2092       C  0.51741357  0.07715726  0.85663870     0.00500
C2093       C  0.78833450  0.04403829  0.86640627    -0.11300
C2094       C  0.79642768  0.03816915  0.89780338     0.02700
H2095       H  0.50396308  0.12122456  0.92730512     0.15600
H2096       H  0.79884753  0.02301576  0.84924591     0.15600
C2097       C  0.82079464  0.00508185  0.90586359     0.37300
C2098       C  0.49663786  0.14566723  0.86885227     0.37200
N2099       N  0.84136624  0.47918193  0.91189771    -0.43000
N2100       N  0.48866977  0.17737136  0.86125056    -0.43000
C2101       C  0.52264878  0.06554803  0.57897031     0.00500
C2102       C  0.54314726  0.04104433  0.59945530    -0.11300
C2103       C  0.53901892  0.04524268  0.63154633     0.02800
C2104       C  0.51378751  0.07423337  0.64389691     0.00500
C2105       C  0.74503080  0.10039444  0.62361975    -0.11300
C2106       C  0.74959482  0.09646396  0.59134139     0.02700
H2107       H  0.56078943  0.01691822  0.59045745     0.15600
H2108       H  0.72729853  0.12416530  0.63306756     0.15600
C2109       C  0.73122682  0.12477884  0.57130652     0.37300
C2110       C  0.55989170  0.01845588  0.65141452     0.37200
N2111       N  0.71725361  0.14749280  0.55479008    -0.43000
N2112       N  0.57689066  0.99715736  0.66731128    -0.43000
C2113       C  0.60960871  0.31242636  0.92307573     0.00500
C2114       C  0.64560433  0.32206538  0.90925630    -0.11300
C2115       C  0.64988923  0.32818270  0.87730688     0.02800
C2116       C  0.61684599  0.32670232  0.85766759     0.00500
C2117       C  0.58033534  0.31938328  0.87219838    -0.11300
C2118       C  0.57651171  0.31179788  0.90406231     0.02700
H2119       H  0.67159138  0.32261743  0.92329938     0.15600
H2120       H  0.55415906  0.31783448  0.85873353     0.15600
C2121       C  0.53828097  0.30226986  0.91621434     0.37300
C2122       C  0.68940280  0.33368017  0.86661188     0.37200
N2123       N  0.50772858  0.29445291  0.92598285    -0.43000
N2124       N  0.72175448  0.33682062  0.85920183    -0.43000
C2125       C  0.61714935  0.32235375  0.64395553     0.00500
C2126       C  0.59784724  0.28826415  0.63486624    -0.11300
C2127       C  0.59177449  0.28042387  0.60352530     0.02800
C2128       C  0.60856490  0.30518026  0.58053714     0.00500
C2129       C  0.62726960  0.33973438  0.58964717    -0.11300
C2130       C  0.62958288  0.34948997  0.62113181     0.02700
H2131       H  0.58619198  0.26858183  0.65247395     0.14800
H2132       H  0.63870332  0.35970796  0.57215955     0.15600
C2133       C  0.63940712  0.38928981  0.62913666     0.37300
C2134       C  0.56797818  0.24687905  0.59593172     0.37200
N2135       N  0.64504093  0.42204512  0.63476592    -0.43000
N2136       N  0.54825496  0.22030913  0.59035436    -0.43000
C2137       C  0.62411345  0.18526385  0.91979711     0.00500
C2138       C  0.60147474  0.20827433  0.89973714    -0.11300
C2139       C  0.60349341  0.20285508  0.86765746     0.02800
C2140       C  0.62816718  0.17358928  0.85517157     0.00500
C2141       C  0.64896497  0.14886456  0.87533671    -0.11300
C2142       C  0.64710408  0.15459305  0.90754384     0.02700
H2143       H  0.58281747  0.23118103  0.90918850     0.15600
H2144       H  0.66596639  0.12460411  0.86587760     0.15600
C2145       C  0.66613373  0.12698986  0.92769214     0.37300
C2146       C  0.58043040  0.22762426  0.84771571     0.37200
N2147       N  0.68031856  0.10426684  0.94406825    -0.43000
N2148       N  0.56192702  0.24637336  0.83093758    -0.43000
C2149       C  0.63814384  0.18146846  0.57742032     0.00500
C2150       C  0.65781035  0.20726804  0.59729131    -0.11300
C2151       C  0.65790245  0.20105189  0.62930209     0.02800
C2152       C  0.63751075  0.16901143  0.64203001     0.00500
C2153       C  0.62020807  0.14147158  0.62203501    -0.11300
C2154       C  0.62119136  0.14727439  0.58973370     0.02700
H2155       H  0.67152922  0.23352594  0.58795139     0.15600
H2156       H  0.60667534  0.11530345  0.63165623     0.15600
C2157       C  0.60863419  0.11668813  0.56913283     0.37300
C2158       C  0.67780181  0.22866522  0.64891696     0.37200
N2159       N  0.60069724  0.09242321  0.55153607    -0.43000
N2160       N  0.69395403  0.25043520  0.66484909    -0.43000
O2161       O  0.66100078  0.70961031  0.03070293    -0.72200
O2162       O  0.64298311  0.79240448  0.46822645    -0.73200
O2163       O  0.64478379  0.78850934  0.03504683    -0.61800
O2164       O  0.65604209  0.71253945  0.46348725    -0.70300
O2165       O  0.59266856  0.70003542  0.46728409    -0.69800
O2166       O  0.58093933  0.77819150  0.03526586    -0.61100
O2167       O  0.57986800  0.77978341  0.46744800    -0.73600
O2168       O  0.59743441  0.69857029  0.03482089    -0.72300
Cu2169     Cu  0.65329604  0.75112159  0.49926905     1.04600
Cu2170     Cu  0.58548336  0.73874531  0.00131703     1.04300
C2171       C  0.63205748  0.69492227  0.04526172     0.94000
C2172       C  0.61009714  0.79569443  0.45511754     0.93100
C2173       C  0.61124440  0.79183943  0.04809051     0.85200
C2174       C  0.62493965  0.69761026  0.45250259     0.91500
O2175       O  0.73718361  0.55527429  0.03253957    -0.72200
O2176       O  0.71339374  0.97806536  0.46467194    -0.73200
O2177       O  0.71053302  0.97916307  0.03356953    -0.61800
O2178       O  0.74128029  0.55412609  0.46514483    -0.70300
O2179       O  0.55169341  0.53095323  0.46639816    -0.69800
O2180       O  0.52092578  0.95570741  0.03412080    -0.61100
O2181       O  0.52378133  0.95543903  0.46669144    -0.73600
O2182       O  0.54743276  0.53161878  0.03437945    -0.72300
Cu2183     Cu  0.72349442  0.51736042  0.99890105     1.04600
Cu2184     Cu  0.53796871  0.49273404  0.00043423     1.04300
C2185       C  0.51970407  0.55211844  0.04633329     0.94000
C2186       C  0.49124733  0.95767139  0.45275798     0.93100
C2187       C  0.48729956  0.95917510  0.04685174     0.85200
C2188       C  0.52525883  0.55101490  0.45293734     0.91500
C2189       C  0.71744885  0.62257486  0.25043939     0.30700
C2190       C  0.54716430  0.62544494  0.24919800     0.30700
C2191       C  0.73798735  0.60255131  0.22232464    -0.05500
C2192       C  0.73554582  0.66438084  0.25004573    -0.06300
C2193       C  0.73813480  0.60326810  0.27853081    -0.06100
C2194       C  0.52838555  0.60406545  0.22217986    -0.05500
C2195       C  0.52604867  0.66600508  0.24942179    -0.06300
C2196       C  0.52866982  0.60421710  0.27704810    -0.06200
C2197       C  0.54168477  0.58912527  0.19448721    -0.31500
N2198       N  0.51078613  0.58031369  0.17682637     0.15000
C2199       C  0.72774135  0.58732059  0.19371917    -0.31500
H2200       H  0.69857666  0.58397906  0.18495443     0.16900
C2201       C  0.53596940  0.70570964  0.24931762    -0.30500
N2202       N  0.50268249  0.72803198  0.24990786     0.13700
C2203       C  0.72182319  0.70293090  0.25037102    -0.30500
C2204       C  0.54272367  0.58996300  0.30450023    -0.30800
N2205       N  0.51245075  0.58342280  0.32393416     0.14200
H2206       H  0.57292041  0.58760958  0.31109974     0.16800
C2207       C  0.72878984  0.59041004  0.30838324    -0.30800
H2208       H  0.69997234  0.58835687  0.31864845     0.16800
H2209       H  0.69157867  0.71187156  0.25093620     0.16800
H2210       H  0.57164603  0.58749655  0.18658680     0.16900
H2211       H  0.56528837  0.71721963  0.24884574     0.16800
C2212       C  0.53551331  0.87567492  0.24910908     0.30700
C2213       C  0.70583235  0.87244085  0.24938435     0.30700
C2214       C  0.51534428  0.89467343  0.22080858    -0.05500
C2215       C  0.51745718  0.83374747  0.24976524    -0.06300
C2216       C  0.51469218  0.89618059  0.27670951    -0.06100
C2217       C  0.72488453  0.89322207  0.22142419    -0.05500
C2218       C  0.72696833  0.83200728  0.24968275    -0.06300
C2219       C  0.72432660  0.89413439  0.27689002    -0.06200
C2220       C  0.71183931  0.90874944  0.19394786    -0.31500
N2221       N  0.49292478  0.91772222  0.17578029     0.15000
C2222       C  0.52584827  0.91000228  0.19202544    -0.31500
H2223       H  0.55514021  0.91336198  0.18288898     0.16900
C2224       C  0.71706610  0.79231790  0.24972585    -0.30500
N2225       N  0.50035977  0.77003537  0.24995289     0.13700
C2226       C  0.53119550  0.79517686  0.25002973    -0.30500
C2227       C  0.71137568  0.90914851  0.30491915    -0.30800
N2228       N  0.49248618  0.91993816  0.32206701     0.14200
H2229       H  0.68156770  0.90935484  0.31320389     0.16800
C2230       C  0.52517116  0.91300051  0.30462535    -0.30800
H2231       H  0.55459047  0.91755667  0.31249967     0.16800
H2232       H  0.56143824  0.78624719  0.25014748     0.16800
H2233       H  0.68191364  0.91127157  0.18689661     0.16900
H2234       H  0.68775727  0.78079517  0.24950480     0.16800
C2235       C  0.58083378  0.87609646  0.24941289     0.30700
C2236       C  0.66058397  0.87270990  0.24919373     0.30700
C2237       C  0.60020131  0.85412289  0.22212138    -0.05500
C2238       C  0.60178240  0.91645620  0.24860572    -0.06300
C2239       C  0.59961065  0.85580287  0.27752203    -0.06100
C2240       C  0.64072377  0.85263023  0.22162717    -0.05500
C2241       C  0.64229715  0.91447946  0.24867200    -0.06300
C2242       C  0.63982502  0.85359610  0.27721186    -0.06200
C2243       C  0.65180319  0.83821788  0.19282454    -0.31500
N2244       N  0.61913591  0.83130199  0.17635178     0.15000
C2245       C  0.58765994  0.83958629  0.19434165    -0.31500
H2246       H  0.55789855  0.83761103  0.18684405     0.16900
C2247       C  0.65613285  0.95270892  0.24838444    -0.30500
N2248       N  0.62539766  0.97803843  0.24818021     0.13700
C2249       C  0.59196690  0.95621065  0.24825264    -0.30500
C2250       C  0.65070082  0.83846220  0.30539896    -0.30800
N2251       N  0.61861357  0.83407797  0.32416591     0.14200
H2252       H  0.68040308  0.83243286  0.31109057     0.16800
C2253       C  0.58725947  0.84318619  0.30632008    -0.30800
H2254       H  0.55728328  0.84313669  0.31393424     0.16800
H2255       H  0.56269473  0.96807060  0.24834113     0.16800
H2256       H  0.68118799  0.83527274  0.18372946     0.16900
H2257       H  0.68638968  0.96134006  0.24850920     0.16800
C2258       C  0.59235098  0.62500504  0.24877028     0.30700
C2259       C  0.67211368  0.62217330  0.24992278     0.30700
C2260       C  0.61152914  0.64506318  0.27643735    -0.05500
C2261       C  0.61085927  0.58337739  0.24906551    -0.06300
C2262       C  0.61325486  0.64453101  0.22115198    -0.06100
C2263       C  0.65190682  0.64336135  0.27725590    -0.05500
C2264       C  0.65136135  0.58160514  0.24968880    -0.06300
C2265       C  0.65382533  0.64321520  0.22175376    -0.06200
C2266       C  0.66270846  0.65756891  0.30577042    -0.31500
N2267       N  0.63008149  0.66674069  0.32232014     0.15000
C2268       C  0.59879189  0.66036515  0.30424346    -0.31500
H2269       H  0.56880193  0.66321421  0.31191360     0.16900
C2270       C  0.66129279  0.54181616  0.24940289    -0.30500
N2271       N  0.62793779  0.51988854  0.24857590     0.13700
C2272       C  0.59715451  0.54513345  0.24835651    -0.30500
C2273       C  0.66691087  0.65608550  0.19314573    -0.30800
N2274       N  0.63573550  0.66329401  0.17503230     0.14200
H2275       H  0.69681944  0.65750533  0.18512464     0.16800
C2276       C  0.60284536  0.65751339  0.19208134    -0.30800
H2277       H  0.57365436  0.66005758  0.18314618     0.16800
H2278       H  0.56693808  0.53644534  0.24762870     0.16800
H2279       H  0.69189356  0.65927051  0.31456709     0.16900
H2280       H  0.69057808  0.53000557  0.24967582     0.16800
C2281       C  0.49121793  0.92868908  0.35502212     0.00500
C2282       C  0.51923129  0.91199553  0.37463755    -0.11300
C2283       C  0.51782545  0.91802631  0.40684895     0.02800
C2284       C  0.48810341  0.94173663  0.42044296     0.00500
C2285       C  0.70949307  0.95761404  0.40082090    -0.11300
C2286       C  0.71114229  0.95181998  0.36852784     0.02700
H2287       H  0.54233315  0.89396509  0.36475130     0.15600
H2288       H  0.68710801  0.97689296  0.41038998     0.15600
C2289       C  0.68348266  0.97255677  0.34950019     0.37300
C2290       C  0.54868854  0.90156454  0.42525624     0.37200
N2291       N  0.66157498  0.98913184  0.33396559    -0.43000
N2292       N  0.57347747  0.89006887  0.44081175    -0.43000
C2293       C  0.49043808  0.92721307  0.14326592     0.00500
C2294       C  0.72168396  0.96195910  0.13412309    -0.11300
C2295       C  0.71619552  0.97051986  0.10259760     0.02800
C2296       C  0.48214549  0.94528831  0.07938335     0.00500
C2297       C  0.50005245  0.91000875  0.08870945    -0.11300
C2298       C  0.50246438  0.90009307  0.12025714     0.02700
H2299       H  0.71044133  0.98192119  0.15177487     0.15600
H2300       H  0.51157357  0.88986904  0.07129413     0.15600
C2301       C  0.51311833  0.86046151  0.12849482     0.37300
C2302       C  0.69451088  0.00569750  0.09498397     0.37200
N2303       N  0.51966436  0.82809745  0.13503200    -0.43000
N2304       N  0.67658520  0.53365152  0.08919044    -0.43000
C2305       C  0.53108789  0.56445368  0.42044161     0.00500
C2306       C  0.51337790  0.59947476  0.41035919    -0.11300
C2307       C  0.50804132  0.60669573  0.37859188     0.02800
C2308       C  0.51740635  0.57715749  0.35663814     0.00500
C2309       C  0.78832348  0.54403555  0.36640518    -0.11300
C2310       C  0.79641864  0.53816617  0.39780181     0.02700
H2311       H  0.50396845  0.62122850  0.42730461     0.15600
H2312       H  0.79883203  0.52301104  0.34924464     0.15600
C2313       C  0.82078085  0.50507517  0.40586145     0.37300
C2314       C  0.49663731  0.64566976  0.36885219     0.37200
N2315       N  0.84138048  0.97919215  0.41189946    -0.43000
N2316       N  0.48866947  0.67737423  0.36125118    -0.43000
C2317       C  0.52264903  0.56554949  0.07897028     0.00500
C2318       C  0.54314527  0.54104407  0.09945555    -0.11300
C2319       C  0.53901666  0.54524256  0.13154662     0.02800
C2320       C  0.51378708  0.57423494  0.14389696     0.00500
C2321       C  0.74503329  0.60039808  0.12361972    -0.11300
C2322       C  0.74959753  0.59646739  0.09134143     0.02700
H2323       H  0.56078561  0.51691650  0.09045784     0.15600
H2324       H  0.72730265  0.62417027  0.13306742     0.15600
C2325       C  0.73123151  0.62478388  0.07130698     0.37300
C2326       C  0.55988648  0.51845385  0.15141519     0.37200
N2327       N  0.71725940  0.64749996  0.05479176    -0.43000
N2328       N  0.57688269  0.49715367  0.16731245    -0.43000
C2329       C  0.60960870  0.81242822  0.42307757     0.00500
C2330       C  0.64560418  0.82206759  0.40925793    -0.11300
C2331       C  0.64988869  0.82818565  0.37730843     0.02800
C2332       C  0.61684502  0.82670607  0.35766940     0.00500
C2333       C  0.58033468  0.81938694  0.37220047    -0.11300
C2334       C  0.57651152  0.81180063  0.40406429     0.02700
H2335       H  0.67159141  0.82261895  0.42330082     0.15600
H2336       H  0.55415819  0.81783855  0.35873582     0.15600
C2337       C  0.53828084  0.80227228  0.41621605     0.37300
C2338       C  0.68940224  0.83368255  0.36661300     0.37200
N2339       N  0.50772811  0.79445481  0.42598354    -0.43000
N2340       N  0.72175385  0.83682270  0.35920258    -0.43000
C2341       C  0.61714541  0.82235334  0.14395673     0.00500
C2342       C  0.59784279  0.78826371  0.13486813    -0.11300
C2343       C  0.59177230  0.78042114  0.10352725     0.02800
C2344       C  0.60856426  0.80517630  0.08053888     0.00500
C2345       C  0.62726820  0.83973105  0.08964824    -0.11300
C2346       C  0.62958031  0.84948822  0.12113254     0.02700
H2347       H  0.58618667  0.76858246  0.15247622     0.14800
H2348       H  0.63870250  0.85970383  0.07216027     0.15600
C2349       C  0.63940480  0.88928834  0.12913630     0.37300
C2350       C  0.56797791  0.74687465  0.09593407     0.37200
N2351       N  0.64503887  0.92204387  0.13476460    -0.43000
N2352       N  0.54825650  0.72030308  0.09035736    -0.43000
C2353       C  0.62411282  0.68526468  0.41979679     0.00500
C2354       C  0.60147245  0.70827431  0.39973741    -0.11300
C2355       C  0.60349048  0.70285533  0.36765776     0.02800
C2356       C  0.62816462  0.67359004  0.35517153     0.00500
C2357       C  0.64896392  0.64886593  0.37533622    -0.11300
C2358       C  0.64710446  0.65459498  0.40754326     0.02700
H2359       H  0.58281496  0.73118067  0.40918913     0.15600
H2360       H  0.66596601  0.62460615  0.36587683     0.15600
C2361       C  0.66613770  0.62699444  0.42769168     0.37300
C2362       C  0.58042724  0.72762512  0.34771652     0.37200
N2363       N  0.68032536  0.60427453  0.44406885    -0.43000
N2364       N  0.56192378  0.74637540  0.33093923    -0.43000
C2365       C  0.63814545  0.68146712  0.07742048     0.00500
C2366       C  0.65781198  0.70726698  0.09729136    -0.11300
C2367       C  0.65790188  0.70105255  0.12930248     0.02800
C2368       C  0.63750747  0.66901393  0.14203072     0.00500
C2369       C  0.62020477  0.64147386  0.12203594    -0.11300
C2370       C  0.62119079  0.64727461  0.08973447     0.02700
H2371       H  0.67153269  0.73352361  0.08795098     0.15600
H2372       H  0.60667042  0.61530677  0.13165744     0.15600
C2373       C  0.60863436  0.61668757  0.06913406     0.37300
C2374       C  0.67780280  0.72866497  0.14891726     0.37200
N2375       N  0.60069835  0.59242212  0.05153749    -0.43000
N2376       N  0.69395654  0.75043366  0.16484952    -0.43000
O2377       O  0.66100036  0.70961018  0.53070296    -0.72200
O2378       O  0.64298315  0.79240480  0.96822659    -0.73200
O2379       O  0.64478319  0.78850936  0.53504673    -0.61800
O2380       O  0.65604181  0.71253970  0.96348710    -0.70300
O2381       O  0.59266827  0.70003599  0.96728420    -0.69800
O2382       O  0.58093877  0.77819119  0.53526546    -0.61100
O2383       O  0.57986800  0.77978398  0.96744826    -0.73600
O2384       O  0.59743404  0.69856976  0.53482075    -0.72300
Cu2385     Cu  0.65329621  0.75112174  0.99926904     1.04600
Cu2386     Cu  0.58548321  0.73874479  0.50131678     1.04300
C2387       C  0.63205710  0.69492190  0.54526164     0.94000
C2388       C  0.61009718  0.79569480  0.95511769     0.93100
C2389       C  0.61124366  0.79183946  0.54809018     0.85200
C2390       C  0.62493924  0.69761069  0.95250253     0.91500
O2391       O  0.73718328  0.55527419  0.53253935    -0.72200
O2392       O  0.71339368  0.97806572  0.96467177    -0.73200
O2393       O  0.71053353  0.97916249  0.53356952    -0.61800
O2394       O  0.74128089  0.55412646  0.96514490    -0.70300
O2395       O  0.55169375  0.53095208  0.96639818    -0.69800
O2396       O  0.52092684  0.95570771  0.53412082    -0.61100
O2397       O  0.52378052  0.95543875  0.96669155    -0.73600
O2398       O  0.54743288  0.53161972  0.53437917    -0.72300
Cu2399     Cu  0.72349443  0.51735991  0.49890102     1.04600
Cu2400     Cu  0.53796907  0.49273484  0.50043408     1.04300
C2401       C  0.51970396  0.55211903  0.54633300     0.94000
C2402       C  0.49124676  0.95767175  0.95275783     0.93100
C2403       C  0.48730053  0.95917478  0.54685172     0.85200
C2404       C  0.52525955  0.55101420  0.95293730     0.91500
C2405       C  0.71744863  0.62257449  0.75043952     0.30700
C2406       C  0.54716410  0.62544442  0.74919786     0.30700
C2407       C  0.73798695  0.60255137  0.72232447    -0.05500
C2408       C  0.73554564  0.66438047  0.75004623    -0.06300
C2409       C  0.73813474  0.60326724  0.77853073    -0.06100
C2410       C  0.52838522  0.60406537  0.72217959    -0.05500
C2411       C  0.52604847  0.66600455  0.74942211    -0.06300
C2412       C  0.52866982  0.60421609  0.77704788    -0.06200
C2413       C  0.54168428  0.58912561  0.69448678    -0.31500
N2414       N  0.51078556  0.58031407  0.67682604     0.15000
C2415       C  0.72774077  0.58732095  0.69371891    -0.31500
H2416       H  0.69857603  0.58397935  0.68495427     0.16900
C2417       C  0.53596921  0.70570912  0.74931785    -0.30500
N2418       N  0.50268233  0.72803148  0.74990825     0.13700
C2419       C  0.72182301  0.70293053  0.75037161    -0.30500
C2420       C  0.54272392  0.58996185  0.80449992    -0.30800
N2421       N  0.51245117  0.58342154  0.82393400     0.14200
H2422       H  0.57292071  0.58760853  0.81109930     0.16800
C2423       C  0.72879005  0.59040928  0.80838327    -0.30800
H2424       H  0.69997266  0.58835656  0.81864873     0.16800
H2425       H  0.69157850  0.71187121  0.75093681     0.16800
H2426       H  0.57164550  0.58749697  0.68658623     0.16900
H2427       H  0.56528819  0.71721907  0.74884568     0.16800
C2428       C  0.53551334  0.87567438  0.74910908     0.30700
C2429       C  0.70583234  0.87244045  0.74938412     0.30700
C2430       C  0.51534444  0.89467297  0.72080857    -0.05500
C2431       C  0.51745712  0.83374697  0.74976522    -0.06300
C2432       C  0.51469214  0.89618005  0.77670949    -0.06100
C2433       C  0.72488470  0.89322173  0.72142406    -0.05500
C2434       C  0.72696824  0.83200686  0.74968250    -0.06300
C2435       C  0.72432656  0.89413381  0.77688989    -0.06200
C2436       C  0.71183964  0.90874929  0.69394773    -0.31500
N2437       N  0.49292524  0.91772200  0.67578028     0.15000
C2438       C  0.52584863  0.91000191  0.69202551    -0.31500
H2439       H  0.55514061  0.91336157  0.68288915     0.16900
C2440       C  0.71706592  0.79231752  0.74972583    -0.30500
N2441       N  0.50035963  0.77003489  0.74995310     0.13700
C2442       C  0.53119540  0.79517634  0.75002994    -0.30500
C2443       C  0.71137554  0.90914795  0.80491899    -0.30800
N2444       N  0.49248602  0.91993784  0.82206689     0.14200
H2445       H  0.68156753  0.90935452  0.81320358     0.16800
C2446       C  0.52517105  0.91300003  0.80462532    -0.30800
H2447       H  0.55459034  0.91755619  0.81249966     0.16800
H2448       H  0.56143811  0.78624662  0.75014788     0.16800
H2449       H  0.68191403  0.91127144  0.68689637     0.16900
H2450       H  0.68775708  0.78079482  0.74950487     0.16800
C2451       C  0.58083379  0.87609588  0.74941281     0.30700
C2452       C  0.66058395  0.87270947  0.74919349     0.30700
C2453       C  0.60020124  0.85412226  0.72212127    -0.05500
C2454       C  0.60178234  0.91645568  0.74860560    -0.06300
C2455       C  0.59961071  0.85580230  0.77752191    -0.06100
C2456       C  0.64072370  0.85262979  0.72162692    -0.05500
C2457       C  0.64229709  0.91447901  0.74867181    -0.06300
C2458       C  0.63982506  0.85359560  0.77721168    -0.06200
C2459       C  0.65180295  0.83821772  0.69282413    -0.31500
N2460       N  0.61913558  0.83130167  0.67635150     0.15000
C2461       C  0.58765971  0.83958561  0.69434160    -0.31500
H2462       H  0.55789827  0.83761018  0.68684417     0.16900
C2463       C  0.65613272  0.95270850  0.74838396    -0.30500
N2464       N  0.62539750  0.97803796  0.74817957     0.13700
C2465       C  0.59196677  0.95621012  0.74825227    -0.30500
C2466       C  0.65070090  0.83846189  0.80539885    -0.30800
N2467       N  0.61861366  0.83407766  0.82416584     0.14200
H2468       H  0.68040317  0.83243268  0.81109044     0.16800
C2469       C  0.58725955  0.84318575  0.80631999    -0.30800
H2470       H  0.55728334  0.84313626  0.81393414     0.16800
H2471       H  0.56269458  0.96807001  0.74834075     0.16800
H2472       H  0.68118769  0.83527288  0.68372884     0.16900
H2473       H  0.68638955  0.96133969  0.74850851     0.16800
C2474       C  0.59235076  0.62500464  0.74877001     0.30700
C2475       C  0.67211345  0.62217299  0.74992277     0.30700
C2476       C  0.61152879  0.64506238  0.77643733    -0.05500
C2477       C  0.61085907  0.58337698  0.74906482    -0.06300
C2478       C  0.61325473  0.64453113  0.72115194    -0.06100
C2479       C  0.65190644  0.64336064  0.77725600    -0.05500
C2480       C  0.65136113  0.58160478  0.74968829    -0.06300
C2481       C  0.65382522  0.64321542  0.72175389    -0.06200
C2482       C  0.66270793  0.65756856  0.80577046    -0.31500
N2483       N  0.63008085  0.66674043  0.82232006     0.15000
C2484       C  0.59879137  0.66036461  0.80424330    -0.31500
H2485       H  0.56880137  0.66321373  0.81191327     0.16900
C2486       C  0.66129257  0.54181579  0.74940228    -0.30500
N2487       N  0.62793762  0.51988811  0.74857510     0.13700
C2488       C  0.59715432  0.54513302  0.74835561    -0.30500
C2489       C  0.66691094  0.65608597  0.69314595    -0.30800
N2490       N  0.63573571  0.66329428  0.67503234     0.14200
H2491       H  0.69681955  0.65750595  0.68512500     0.16800
C2492       C  0.60284544  0.65751349  0.69208122    -0.30800
H2493       H  0.57365452  0.66005742  0.68314588     0.16800
H2494       H  0.56693790  0.53644489  0.74762771     0.16800
H2495       H  0.69189300  0.65927030  0.81456719     0.16900
H2496       H  0.69057789  0.53000526  0.74967539     0.16800
C2497       C  0.49121768  0.92868903  0.85502196     0.00500
C2498       C  0.51923125  0.91199599  0.87463744    -0.11300
C2499       C  0.51782542  0.91802706  0.90684880     0.02800
C2500       C  0.48810306  0.94173705  0.92044277     0.00500
C2501       C  0.70949264  0.95761350  0.90082084    -0.11300
C2502       C  0.71114185  0.95181932  0.86852776     0.02700
H2503       H  0.54233328  0.89396571  0.86475128     0.15600
H2504       H  0.68710736  0.97689215  0.91038992     0.15600
C2505       C  0.68348225  0.97255604  0.84950003     0.37300
C2506       C  0.54868885  0.90156568  0.92525594     0.37200
N2507       N  0.66157478  0.98913123  0.83396533    -0.43000
N2508       N  0.57347828  0.89007015  0.94081101    -0.43000
C2509       C  0.49043878  0.92721280  0.64326590     0.00500
C2510       C  0.72168436  0.96195880  0.63412293    -0.11300
C2511       C  0.71619595  0.97051935  0.60259741     0.02800
C2512       C  0.48214654  0.94528788  0.57938330     0.00500
C2513       C  0.50005374  0.91000847  0.58870950    -0.11300
C2514       C  0.50246534  0.90009282  0.62025721     0.02700
H2515       H  0.71044139  0.98192080  0.65177464     0.15600
H2516       H  0.51157510  0.88986878  0.57129427     0.15600
C2517       C  0.51311884  0.86046121  0.62849504     0.37300
C2518       C  0.69451036  0.00569638  0.59498370     0.37200
N2519       N  0.51966444  0.82809714  0.63503243    -0.43000
N2520       N  0.67658399  0.53364977  0.58919018    -0.43000
C2521       C  0.53108885  0.56445285  0.92044152     0.00500
C2522       C  0.51337894  0.59947390  0.91035897    -0.11300
C2523       C  0.50804220  0.60669464  0.87859165     0.02800
C2524       C  0.51740712  0.57715631  0.85663799     0.00500
C2525       C  0.78832419  0.54403456  0.86640513    -0.11300
C2526       C  0.79641939  0.53816536  0.89780181     0.02700
H2527       H  0.50396957  0.62122775  0.92730433     0.15600
H2528       H  0.79883280  0.52301002  0.84924463     0.15600
C2529       C  0.82078185  0.50507455  0.90586153     0.37300
C2530       C  0.49663772  0.64566845  0.86885181     0.37200
N2531       N  0.84138259  0.97919215  0.91189989    -0.43000
N2532       N  0.48866936  0.67737274  0.86125069    -0.43000
C2533       C  0.52264883  0.56555015  0.57896995     0.00500
C2534       C  0.54314511  0.54104482  0.59945522    -0.11300
C2535       C  0.53901607  0.54524299  0.63154628     0.02800
C2536       C  0.51378638  0.57423529  0.64389662     0.00500
C2537       C  0.74503228  0.60039832  0.62361926    -0.11300
C2538       C  0.74959679  0.59646766  0.59134097     0.02700
H2539       H  0.56078564  0.51691742  0.59045752     0.15600
H2540       H  0.72730137  0.62417032  0.63306690     0.15600
C2541       C  0.73123072  0.62478389  0.57130631     0.37300
C2542       C  0.55988536  0.51845379  0.65141479     0.37200
N2543       N  0.71725866  0.64749946  0.55479063    -0.43000
N2544       N  0.57688110  0.49715310  0.66731196    -0.43000
C2545       C  0.60960881  0.81242837  0.92307762     0.00500
C2546       C  0.64560433  0.82206748  0.90925790    -0.11300
C2547       C  0.64988882  0.82818527  0.87730836     0.02800
C2548       C  0.61684512  0.82670581  0.85766936     0.00500
C2549       C  0.58033475  0.81938694  0.87220050    -0.11300
C2550       C  0.57651159  0.81180083  0.90406437     0.02700
H2551       H  0.67159157  0.82261887  0.92330077     0.15600
H2552       H  0.55415825  0.81783860  0.85873587     0.15600
C2553       C  0.53828093  0.80227263  0.91621623     0.37300
C2554       C  0.68940238  0.83368184  0.86661284     0.37200
N2555       N  0.50772830  0.79445517  0.92598394    -0.43000
N2556       N  0.72175400  0.83682163  0.85920232    -0.43000
C2557       C  0.61714482  0.82235324  0.64395639     0.00500
C2558       C  0.59784238  0.78826351  0.63486773    -0.11300
C2559       C  0.59177169  0.78042110  0.60352686     0.02800
C2560       C  0.60856320  0.80517653  0.58053850     0.00500
C2561       C  0.62726693  0.83973138  0.58964789    -0.11300
C2562       C  0.62957936  0.84948833  0.62113222     0.02700
H2563       H  0.58618658  0.76858199  0.65247578     0.14800
H2564       H  0.63870108  0.85970427  0.57215995     0.15600
C2565       C  0.63940435  0.88928829  0.62913608     0.37300
C2566       C  0.56797767  0.74687438  0.59593358     0.37200
N2567       N  0.64503897  0.92204373  0.63476434    -0.43000
N2568       N  0.54825654  0.72030268  0.59035665    -0.43000
C2569       C  0.62411220  0.68526489  0.91979675     0.00500
C2570       C  0.60147125  0.70827398  0.89973738    -0.11300
C2571       C  0.60348916  0.70285485  0.86765770     0.02800
C2572       C  0.62816378  0.67358992  0.85517145     0.00500
C2573       C  0.64896366  0.64886637  0.87533615    -0.11300
C2574       C  0.64710436  0.65459559  0.90754315     0.02700
H2575       H  0.58281350  0.73118017  0.90918911     0.15600
H2576       H  0.66596617  0.62460684  0.86587678     0.15600
C2577       C  0.66613828  0.62699544  0.92769144     0.37300
C2578       C  0.58042569  0.72762443  0.84771644     0.37200
N2579       N  0.68032645  0.60427567  0.94406845    -0.43000
N2580       N  0.56192219  0.74637457  0.83093907    -0.43000
C2581       C  0.63814520  0.68146688  0.57742043     0.00500
C2582       C  0.65781128  0.70726719  0.59729122    -0.11300
C2583       C  0.65790169  0.70105272  0.62930231     0.02800
C2584       C  0.63750794  0.66901376  0.64203070     0.00500
C2585       C  0.62020602  0.64147308  0.62203598    -0.11300
C2586       C  0.62119174  0.64727377  0.58973448     0.02700
H2587       H  0.67153130  0.73352418  0.58795080     0.15600
H2588       H  0.60667243  0.61530560  0.63165755     0.15600
C2589       C  0.60863654  0.61668606  0.56913419     0.37300
C2590       C  0.67780230  0.72866558  0.64891687     0.37200
N2591       N  0.60070159  0.59241983  0.55153796    -0.43000
N2592       N  0.69395580  0.75043483  0.66484881    -0.43000
O2593       O  0.91099964  0.20961421  0.03070375    -0.72200
O2594       O  0.89298293  0.29240459  0.46822490    -0.73200
O2595       O  0.89478403  0.28851381  0.03504483    -0.61800
O2596       O  0.90604213  0.21253942  0.46348798    -0.70300
O2597       O  0.84266860  0.20003550  0.46728414    -0.69800
O2598       O  0.83093972  0.27819513  0.03526471    -0.61100
O2599       O  0.82986780  0.27978358  0.46744663    -0.73600
O2600       O  0.84743337  0.19857307  0.03482091    -0.72300
Cu2601     Cu  0.90329554  0.25112347  0.49926855     1.04600
Cu2602     Cu  0.83548311  0.23874714  0.00131643     1.04300
C2603       C  0.88205630  0.19492541  0.04526202     0.94000
C2604       C  0.86009701  0.29569399  0.45511589     0.93100
C2605       C  0.86124492  0.29184390  0.04808885     0.85200
C2606       C  0.87494009  0.19760970  0.45250312     0.91500
O2607       O  0.98718356  0.05527287  0.03254000    -0.72200
O2608       O  0.96339583  0.47806451  0.46467176    -0.73200
O2609       O  0.96053535  0.47916339  0.03356896    -0.61800
O2610       O  0.99128038  0.05412589  0.46514550    -0.70300
O2611       O  0.80169263  0.03095067  0.46639915    -0.69800
O2612       O  0.77092894  0.45570928  0.03411999    -0.61100
O2613       O  0.77378408  0.45544027  0.46669070    -0.73600
O2614       O  0.79743225  0.03161595  0.03438007    -0.72300
Cu2615     Cu  0.97349346  0.01736008  0.99890154     1.04600
Cu2616     Cu  0.78796693  0.99273180  0.00043511     1.04300
C2617       C  0.76970397  0.05211617  0.04633381     0.94000
C2618       C  0.74124940  0.45767050  0.45275799     0.93100
C2619       C  0.73730273  0.45917606  0.04685107     0.85200
C2620       C  0.77525908  0.05101375  0.45293833     0.91500
C2621       C  0.96745181  0.12257345  0.25043970     0.30700
C2622       C  0.79716724  0.12544461  0.24919746     0.30700
C2623       C  0.98799010  0.10254890  0.22232530    -0.05500
C2624       C  0.98554835  0.16437975  0.25004479    -0.06300
C2625       C  0.98813854  0.10326809  0.27853153    -0.06100
C2626       C  0.77838833  0.10406383  0.22217994    -0.05500
C2627       C  0.77605114  0.16600430  0.24942029    -0.06300
C2628       C  0.77867358  0.10421757  0.27704835    -0.06200
C2629       C  0.79168704  0.08912442  0.19448688    -0.31500
N2630       N  0.76078813  0.08031161  0.17682671     0.15000
C2631       C  0.97774366  0.08731768  0.19372008    -0.31500
H2632       H  0.94857877  0.08397542  0.18495588     0.16900
C2633       C  0.78597153  0.20570888  0.24931452    -0.30500
N2634       N  0.75268451  0.22803100  0.24990465     0.13700
C2635       C  0.97182542  0.20292984  0.25036912    -0.30500
C2636       C  0.79272847  0.08996360  0.30450028    -0.30800
N2637       N  0.76245627  0.08342328  0.32393487     0.14200
H2638       H  0.82292544  0.08761014  0.31109914     0.16800
C2639       C  0.97879469  0.09040999  0.30838423    -0.30800
H2640       H  0.94997747  0.08835640  0.31864988     0.16800
H2641       H  0.94158090  0.21187039  0.25093469     0.16800
H2642       H  0.82164806  0.08749696  0.18658574     0.16900
H2643       H  0.81529044  0.21721900  0.24884190     0.16800
C2644       C  0.78551611  0.37567388  0.24910832     0.30700
C2645       C  0.95583512  0.37244057  0.24938375     0.30700
C2646       C  0.76534709  0.39467364  0.22080829    -0.05500
C2647       C  0.76745964  0.33374649  0.24976334    -0.06300
C2648       C  0.76469529  0.39617835  0.27670949    -0.06100
C2649       C  0.97488732  0.39322282  0.22142399    -0.05500
C2650       C  0.97697077  0.33200669  0.24968095    -0.06300
C2651       C  0.97432973  0.39413256  0.27688990    -0.06200
C2652       C  0.96184221  0.40875028  0.19394761    -0.31500
N2653       N  0.74292776  0.41772243  0.17577983     0.15000
C2654       C  0.77585118  0.41000205  0.19202501    -0.31500
H2655       H  0.80514313  0.41336099  0.18288844     0.16900
C2656       C  0.96706825  0.29231730  0.24972345    -0.30500
N2657       N  0.75036177  0.27003444  0.24994965     0.13700
C2658       C  0.78119767  0.29517577  0.25002679    -0.30500
C2659       C  0.96137904  0.40914403  0.30491989    -0.30800
N2660       N  0.74248961  0.41993177  0.32206841     0.14200
H2661       H  0.93157106  0.40935036  0.31320457     0.16800
C2662       C  0.77517454  0.41299539  0.30462647    -0.30800
H2663       H  0.80459380  0.41755061  0.31250122     0.16800
H2664       H  0.81144032  0.28624593  0.25014428     0.16800
H2665       H  0.93191653  0.41127252  0.18689644     0.16900
H2666       H  0.93775936  0.28079471  0.24950274     0.16800
C2667       C  0.83083654  0.37609566  0.24941222     0.30700
C2668       C  0.91058673  0.37271001  0.24919345     0.30700
C2669       C  0.85020453  0.35412354  0.22212031    -0.05500
C2670       C  0.85178474  0.41645572  0.24860640    -0.06300
C2671       C  0.84961324  0.35580095  0.27752079    -0.06100
C2672       C  0.89072692  0.35263131  0.22162634    -0.05500
C2673       C  0.89229955  0.41447963  0.24867283    -0.06300
C2674       C  0.88982762  0.35359473  0.27721096    -0.06200
C2675       C  0.90180680  0.33821834  0.19282404    -0.31500
N2676       N  0.86913979  0.33130188  0.17635113     0.15000
C2677       C  0.83766355  0.33958616  0.19434077    -0.31500
H2678       H  0.80790221  0.33761030  0.18684326     0.16900
C2679       C  0.90613443  0.45270957  0.24838601    -0.30500
N2680       N  0.87539863  0.47803855  0.24818203     0.13700
C2681       C  0.84196844  0.45620996  0.24825401    -0.30500
C2682       C  0.90070291  0.33845965  0.30539778    -0.30800
N2683       N  0.86861528  0.33407431  0.32416418     0.14200
H2684       H  0.93040509  0.33243021  0.31108954     0.16800
C2685       C  0.83726151  0.34318245  0.30631811    -0.30800
H2686       H  0.80728513  0.34313165  0.31393169     0.16800
H2687       H  0.81269601  0.46806925  0.24834233     0.16800
H2688       H  0.93119173  0.33527313  0.18372922     0.16900
H2689       H  0.93639114  0.46134134  0.24851075     0.16800
C2690       C  0.84235388  0.12500515  0.24876983     0.30700
C2691       C  0.92211656  0.12217201  0.24992278     0.30700
C2692       C  0.86153223  0.14506253  0.27643729    -0.05500
C2693       C  0.86086146  0.08337735  0.24906449    -0.06300
C2694       C  0.86325812  0.14453126  0.22115191    -0.06100
C2695       C  0.90190985  0.14335988  0.27725603    -0.05500
C2696       C  0.90136346  0.08160420  0.24968814    -0.06300
C2697       C  0.90382864  0.14321472  0.22175376    -0.06200
C2698       C  0.91271168  0.15756759  0.30577050    -0.31500
N2699       N  0.88008486  0.16674019  0.32232013     0.15000
C2700       C  0.84879523  0.16036524  0.30424328    -0.31500
H2701       H  0.81880527  0.16321527  0.31191319     0.16900
C2702       C  0.91129373  0.04181495  0.24940181    -0.30500
N2703       N  0.87793808  0.01988833  0.24857420     0.13700
C2704       C  0.84715558  0.04513395  0.24835478    -0.30500
C2705       C  0.91691427  0.15608303  0.19314510    -0.30800
N2706       N  0.88573887  0.16329117  0.17503158     0.14200
H2707       H  0.94682276  0.15750202  0.18512378     0.16800
C2708       C  0.85284876  0.15751212  0.19208088    -0.30800
H2709       H  0.82365776  0.16005632  0.18314572     0.16800
H2710       H  0.81693895  0.03644660  0.24762671     0.16800
H2711       H  0.94189675  0.15926907  0.31456711     0.16900
H2712       H  0.94057869  0.03000353  0.24967498     0.16800
C2713       C  0.74122068  0.42868231  0.35502356     0.00500
C2714       C  0.76923172  0.41198672  0.37464013    -0.11300
C2715       C  0.76782466  0.41801850  0.40685157     0.02800
C2716       C  0.73810441  0.44173257  0.42044399     0.00500
C2717       C  0.95949585  0.45761105  0.40082085    -0.11300
C2718       C  0.96114623  0.45181580  0.36852798     0.02700
H2719       H  0.79233282  0.39395473  0.36475463     0.15600
H2720       H  0.93711222  0.47689254  0.41038876     0.15600
C2721       C  0.93349013  0.47255495  0.34949870     0.37300
C2722       C  0.79868553  0.40155558  0.42526066     0.37200
N2723       N  0.91158588  0.48913173  0.33396218    -0.43000
N2724       N  0.82347269  0.39005989  0.44081794    -0.43000
C2725       C  0.74044123  0.42721356  0.14326539     0.00500
C2726       C  0.97168617  0.46195926  0.13412251    -0.11300
C2727       C  0.96619882  0.47052064  0.10259695     0.02800
C2728       C  0.73214932  0.44528927  0.07938270     0.00500
C2729       C  0.75005757  0.41001044  0.08870878    -0.11300
C2730       C  0.75246993  0.40009485  0.12025645     0.02700
H2731       H  0.96044286  0.48192097  0.15177427     0.15600
H2732       H  0.76157981  0.38987136  0.07129346     0.15600
C2733       C  0.76312722  0.36046430  0.12849385     0.37300
C2734       C  0.94451658  0.50569973  0.09498324     0.37200
N2735       N  0.76967590  0.32810073  0.13503064    -0.43000
N2736       N  0.92657722  0.03364807  0.08919154    -0.43000
C2737       C  0.78108972  0.06445429  0.42044308     0.00500
C2738       C  0.76337592  0.09947332  0.41036030    -0.11300
C2739       C  0.75804213  0.10669493  0.37859276     0.02800
C2740       C  0.76741269  0.07715862  0.35663895     0.00500
C2741       C  0.03833400  0.04403946  0.36640632    -0.11300
C2742       C  0.04642704  0.03817007  0.39780340     0.02700
H2743       H  0.75396168  0.12122519  0.42730560     0.15600
H2744       H  0.04884708  0.02301703  0.34924590     0.15600
C2745       C  0.07079344  0.00508233  0.40586354     0.37300
C2746       C  0.74663719  0.14566858  0.36885291     0.37200
N2747       N  0.09136418  0.47918186  0.41189729    -0.43000
N2748       N  0.73866952  0.17737292  0.36125147    -0.43000
C2749       C  0.77264917  0.06554732  0.07897060     0.00500
C2750       C  0.79314769  0.04104354  0.09945554    -0.11300
C2751       C  0.78901966  0.04524200  0.13154660     0.02800
C2752       C  0.76378824  0.07423263  0.14389727     0.00500
C2753       C  0.99503182  0.10039446  0.12362003    -0.11300
C2754       C  0.99959577  0.09646391  0.09134169     0.02700
H2755       H  0.81078977  0.01691739  0.09045765     0.15600
H2756       H  0.97729973  0.12416545  0.13306784     0.15600
C2757       C  0.98122788  0.12477904  0.07130698     0.37300
C2758       C  0.80989298  0.01845554  0.15141472     0.37200
N2759       N  0.96725458  0.14749340  0.05479094    -0.43000
N2760       N  0.82689254  0.99715732  0.16731133    -0.43000
C2761       C  0.85960880  0.31242646  0.42307567     0.00500
C2762       C  0.89560445  0.32206535  0.40925626    -0.11300
C2763       C  0.89988940  0.32818269  0.37730686     0.02800
C2764       C  0.86684606  0.32670259  0.35766761     0.00500
C2765       C  0.83033536  0.31938386  0.37219844    -0.11300
C2766       C  0.82651173  0.31179841  0.40406233     0.02700
H2767       H  0.92159149  0.32261722  0.42329936     0.15600
H2768       H  0.80415900  0.31783535  0.35873367     0.15600
C2769       C  0.78828088  0.30227091  0.41621440     0.37300
C2770       C  0.93940307  0.33367982  0.36661188     0.37200
N2771       N  0.75772837  0.29445435  0.42598289    -0.43000
N2772       N  0.97175480  0.33682001  0.35920187    -0.43000
C2773       C  0.86714984  0.32235395  0.14395592     0.00500
C2774       C  0.84784764  0.28826443  0.13486668    -0.11300
C2775       C  0.84177518  0.28042397  0.10352575     0.02800
C2776       C  0.85856586  0.30518021  0.08053759     0.00500
C2777       C  0.87727069  0.33973426  0.08964761    -0.11300
C2778       C  0.87958377  0.34948998  0.12113221     0.02700
H2779       H  0.83619213  0.26858228  0.15247441     0.14800
H2780       H  0.88870450  0.35970780  0.07216001     0.15600
C2781       C  0.88940748  0.38928999  0.12913694     0.37300
C2782       C  0.81797873  0.24687927  0.09593222     0.37200
N2783       N  0.89504055  0.42204549  0.13476598    -0.43000
N2784       N  0.79825524  0.22030949  0.09035505    -0.43000
C2785       C  0.87411412  0.18526402  0.41979713     0.00500
C2786       C  0.85147609  0.20827520  0.39973717    -0.11300
C2787       C  0.85349483  0.20285616  0.36765750     0.02800
C2788       C  0.87816798  0.17358990  0.35517158     0.00500
C2789       C  0.89896515  0.14886451  0.37533667    -0.11300
C2790       C  0.89710418  0.15459279  0.40754384     0.02700
H2791       H  0.83281910  0.23118212  0.40918857     0.15600
H2792       H  0.91596611  0.12460378  0.36587750     0.15600
C2793       C  0.91613297  0.12698899  0.42769218     0.37300
C2794       C  0.83043210  0.22762563  0.34771576     0.37200
N2795       N  0.93031699  0.10426562  0.44406845    -0.43000
N2796       N  0.81192887  0.24637481  0.33093758    -0.43000
C2797       C  0.88814435  0.18146896  0.07742039     0.00500
C2798       C  0.90781134  0.20726801  0.09729153    -0.11300
C2799       C  0.90790283  0.20105184  0.12930235     0.02800
C2800       C  0.88751034  0.16901177  0.14203007     0.00500
C2801       C  0.87020697  0.14147254  0.12203495    -0.11300
C2802       C  0.87119067  0.14727547  0.08973368     0.02700
H2803       H  0.92153094  0.23352556  0.08795170     0.15600
H2804       H  0.85667333  0.11530485  0.13165604     0.15600
C2805       C  0.85863197  0.11669009  0.06913265     0.37300
C2806       C  0.92780227  0.22866476  0.14891757     0.37200
N2807       N  0.85069366  0.09242607  0.05153555    -0.43000
N2808       N  0.94395448  0.25043411  0.16485025    -0.43000
O2809       O  0.91099898  0.20961363  0.53070378    -0.72200
O2810       O  0.89298305  0.29240527  0.96822503    -0.73200
O2811       O  0.89478331  0.28851344  0.53504467    -0.61800
O2812       O  0.90604199  0.21254003  0.96348777    -0.70300
O2813       O  0.84266846  0.20003624  0.96728423    -0.69800
O2814       O  0.83093906  0.27819456  0.53526429    -0.61100
O2815       O  0.82986789  0.27978429  0.96744690    -0.73600
O2816       O  0.84743277  0.19857224  0.53482083    -0.72300
Cu2817     Cu  0.90329590  0.25112403  0.99926853     1.04600
Cu2818     Cu  0.83548284  0.23874641  0.50131622     1.04300
C2819       C  0.88205569  0.19492461  0.54526196     0.94000
C2820       C  0.86009710  0.29569459  0.95511605     0.93100
C2821       C  0.86124410  0.29184361  0.54808848     0.85200
C2822       C  0.87493984  0.19761030  0.95250307     0.91500
O2823       O  0.98718322  0.05527283  0.53253987    -0.72200
O2824       O  0.96339543  0.47806515  0.96467149    -0.73200
O2825       O  0.96053598  0.47916268  0.53356900    -0.61800
O2826       O  0.99128130  0.05412597  0.96514558    -0.70300
O2827       O  0.80169311  0.03094966  0.96639920    -0.69800
O2828       O  0.77092999  0.45570960  0.53411991    -0.61100
O2829       O  0.77378317  0.45543999  0.96669077    -0.73600
O2830       O  0.79743211  0.03161675  0.53437983    -0.72300
Cu2831     Cu  0.97349334  0.01735974  0.49890154     1.04600
Cu2832     Cu  0.78796712  0.99273249  0.50043496     1.04300
C2833       C  0.76970359  0.05211661  0.54633357     0.94000
C2834       C  0.74124864  0.45767080  0.95275788     0.93100
C2835       C  0.73730372  0.45917581  0.54685100     0.85200
C2836       C  0.77525989  0.05101313  0.95293830     0.91500
C2837       C  0.96745162  0.12257299  0.75043985     0.30700
C2838       C  0.79716705  0.12544413  0.74919741     0.30700
C2839       C  0.98798978  0.10254886  0.72232521    -0.05500
C2840       C  0.98554814  0.16437929  0.75004522    -0.06300
C2841       C  0.98813851  0.10326724  0.77853152    -0.06100
C2842       C  0.77838795  0.10406383  0.72217978    -0.05500
C2843       C  0.77605098  0.16600388  0.74942075    -0.06300
C2844       C  0.77867355  0.10421658  0.77704815    -0.06200
C2845       C  0.79168650  0.08912475  0.69448658    -0.31500
N2846       N  0.76078750  0.08031214  0.67682643     0.15000
C2847       C  0.97774316  0.08731776  0.69371998    -0.31500
H2848       H  0.94857824  0.08397534  0.68495593     0.16900
C2849       C  0.78597142  0.20570845  0.74931491    -0.30500
N2850       N  0.75268444  0.22803061  0.74990513     0.13700
C2851       C  0.97182518  0.20292935  0.75036960    -0.30500
C2852       C  0.79272870  0.08996206  0.80449983    -0.30800
N2853       N  0.76245668  0.08342166  0.82393459     0.14200
H2854       H  0.82292574  0.08760848  0.81109846     0.16800
C2855       C  0.97879496  0.09040906  0.80838431    -0.30800
H2856       H  0.94997786  0.08835575  0.81865022     0.16800
H2857       H  0.94158064  0.21186985  0.75093516     0.16800
H2858       H  0.82164750  0.08749728  0.68658541     0.16900
H2859       H  0.81529035  0.21721855  0.74884200     0.16800
C2860       C  0.78551612  0.37567336  0.74910831     0.30700
C2861       C  0.95583510  0.37244014  0.74938355     0.30700
C2862       C  0.76534723  0.39467307  0.72080823    -0.05500
C2863       C  0.76745964  0.33374605  0.74976332    -0.06300
C2864       C  0.76469521  0.39617786  0.77670947    -0.06100
C2865       C  0.97488747  0.39322230  0.72142380    -0.05500
C2866       C  0.97697065  0.33200621  0.74968089    -0.06300
C2867       C  0.97432963  0.39413216  0.77688976    -0.06200
C2868       C  0.96184262  0.40874995  0.69394738    -0.31500
N2869       N  0.74292823  0.41772225  0.67577982     0.15000
C2870       C  0.77585151  0.41000165  0.69202506    -0.31500
H2871       H  0.80514354  0.41336057  0.68288859     0.16900
C2872       C  0.96706807  0.29231682  0.74972348    -0.30500
N2873       N  0.75036176  0.27003404  0.74994985     0.13700
C2874       C  0.78119765  0.29517534  0.75002697    -0.30500
C2875       C  0.96137886  0.40914379  0.80491970    -0.30800
N2876       N  0.74248925  0.41993152  0.82206828     0.14200
H2877       H  0.93157086  0.40935026  0.81320432     0.16800
C2878       C  0.77517429  0.41299488  0.80462651    -0.30800
H2879       H  0.80459350  0.41755001  0.81250138     0.16800
H2880       H  0.81144032  0.28624548  0.75014463     0.16800
H2881       H  0.93191701  0.41127228  0.68689606     0.16900
H2882       H  0.93775918  0.28079422  0.74950272     0.16800
C2883       C  0.83083656  0.37609507  0.74941211     0.30700
C2884       C  0.91058672  0.37270956  0.74919321     0.30700
C2885       C  0.85020452  0.35412282  0.72212020    -0.05500
C2886       C  0.85178470  0.41645517  0.74860616    -0.06300
C2887       C  0.84961330  0.35580047  0.77752069    -0.06100
C2888       C  0.89072692  0.35263072  0.72162611    -0.05500
C2889       C  0.89229951  0.41447915  0.74867251    -0.06300
C2890       C  0.88982767  0.35359435  0.77721083    -0.06200
C2891       C  0.90180668  0.33821813  0.69282361    -0.31500
N2892       N  0.86913960  0.33130157  0.67635078     0.15000
C2893       C  0.83766347  0.33958560  0.69434063    -0.31500
H2894       H  0.80790207  0.33760974  0.68684325     0.16900
C2895       C  0.90613435  0.45270913  0.74838539    -0.30500
N2896       N  0.87539853  0.47803806  0.74818130     0.13700
C2897       C  0.84196834  0.45620943  0.74825352    -0.30500
C2898       C  0.90070301  0.33845936  0.80539769    -0.30800
N2899       N  0.86861540  0.33407399  0.82416412     0.14200
H2900       H  0.93040519  0.33242994  0.81108944     0.16800
C2901       C  0.83726161  0.34318200  0.80631804    -0.30800
H2902       H  0.80728523  0.34313119  0.81393165     0.16800
H2903       H  0.81269593  0.46806869  0.74834183     0.16800
H2904       H  0.93119156  0.33527322  0.68372863     0.16900
H2905       H  0.93639105  0.46134096  0.74851000     0.16800
C2906       C  0.84235370  0.12500464  0.74876961     0.30700
C2907       C  0.92211637  0.12217154  0.74992278     0.30700
C2908       C  0.86153193  0.14506149  0.77643734    -0.05500
C2909       C  0.86086129  0.08337685  0.74906381    -0.06300
C2910       C  0.86325804  0.14453129  0.72115193    -0.06100
C2911       C  0.90190951  0.14335888  0.77725619    -0.05500
C2912       C  0.90136329  0.08160372  0.74968759    -0.06300
C2913       C  0.90382858  0.14321483  0.72175393    -0.06200
C2914       C  0.91271123  0.15756677  0.80577062    -0.31500
N2915       N  0.88008436  0.16673956  0.82232014     0.15000
C2916       C  0.84879481  0.16036437  0.80424324    -0.31500
H2917       H  0.81880480  0.16321441  0.81191303     0.16900
C2918       C  0.91129356  0.04181448  0.74940112    -0.30500
N2919       N  0.87793794  0.01988781  0.74857327     0.13700
C2920       C  0.84715543  0.04513345  0.74835382    -0.30500
C2921       C  0.91691436  0.15608327  0.69314532    -0.30800
N2922       N  0.88573909  0.16329127  0.67503165     0.14200
H2923       H  0.94682292  0.15750229  0.68512411     0.16800
C2924       C  0.85284888  0.15751212  0.69208084    -0.30800
H2925       H  0.82365796  0.16005611  0.68314551     0.16800
H2926       H  0.81693881  0.03644610  0.74762567     0.16800
H2927       H  0.94189631  0.15926836  0.81456720     0.16900
H2928       H  0.94057855  0.03000310  0.74967449     0.16800
C2929       C  0.74122011  0.42868224  0.85502341     0.00500
C2930       C  0.76923115  0.41198689  0.87464006    -0.11300
C2931       C  0.76782404  0.41801887  0.90685145     0.02800
C2932       C  0.73810371  0.44173290  0.92044382     0.00500
C2933       C  0.95949529  0.45761093  0.90082066    -0.11300
C2934       C  0.96114575  0.45181560  0.86852778     0.02700
H2935       H  0.79233234  0.39395490  0.86475467     0.15600
H2936       H  0.93711153  0.47689235  0.91038850     0.15600
C2937       C  0.93349000  0.47255498  0.84949833     0.37300
C2938       C  0.79868516  0.40155621  0.92526039     0.37200
N2939       N  0.91158626  0.48913203  0.83396152    -0.43000
N2940       N  0.82347280  0.39006075  0.94081729    -0.43000
C2941       C  0.74044194  0.42721340  0.64326537     0.00500
C2942       C  0.97168690  0.46195893  0.63412241    -0.11300
C2943       C  0.96619946  0.47052009  0.60259684     0.02800
C2944       C  0.73215049  0.44528904  0.57938266     0.00500
C2945       C  0.75005889  0.41001032  0.58870881    -0.11300
C2946       C  0.75247086  0.40009470  0.62025650     0.02700
H2947       H  0.96044317  0.48192048  0.65177413     0.15600
H2948       H  0.76158132  0.38987129  0.57129353     0.15600
C2949       C  0.76312774  0.36046410  0.62849401     0.37300
C2950       C  0.94451599  0.50569838  0.59498305     0.37200
N2951       N  0.76967579  0.32810048  0.63503105    -0.43000
N2952       N  0.92657564  0.03364624  0.58919126    -0.43000
C2953       C  0.78109075  0.06445346  0.92044294     0.00500
C2954       C  0.76337684  0.09947236  0.91035995    -0.11300
C2955       C  0.75804283  0.10669366  0.87859238     0.02800
C2956       C  0.76741342  0.07715721  0.85663870     0.00500
C2957       C  0.03833500  0.04403852  0.86640628    -0.11300
C2958       C  0.04642809  0.03816930  0.89780341     0.02700
H2959       H  0.75396269  0.12122438  0.92730513     0.15600
H2960       H  0.04884814  0.02301604  0.84924593     0.15600
C2961       C  0.07079503  0.00508198  0.90586361     0.37300
C2962       C  0.74663762  0.14566715  0.86885228     0.37200
N2963       N  0.09136607  0.47918185  0.91189748    -0.43000
N2964       N  0.73866973  0.17737133  0.86125057    -0.43000
C2965       C  0.77264867  0.06554792  0.57897028     0.00500
C2966       C  0.79314723  0.04104425  0.59945522    -0.11300
C2967       C  0.78901896  0.04524257  0.63154626     0.02800
C2968       C  0.76378745  0.07423312  0.64389694     0.00500
C2969       C  0.99503103  0.10039477  0.62361971    -0.11300
C2970       C  0.99959507  0.09646419  0.59134137     0.02700
H2971       H  0.81078944  0.01691820  0.59045732     0.15600
H2972       H  0.97729882  0.12416570  0.63306749     0.15600
C2973       C  0.98122717  0.12477904  0.57130644     0.37300
C2974       C  0.80989193  0.01845585  0.65141435     0.37200
N2975       N  0.96725409  0.14749290  0.55478984    -0.43000
N2976       N  0.82689098  0.99715735  0.66731106    -0.43000
C2977       C  0.85960887  0.31242680  0.92307574     0.00500
C2978       C  0.89560450  0.32206570  0.90925629    -0.11300
C2979       C  0.89988941  0.32818292  0.87730686     0.02800
C2980       C  0.86684614  0.32670243  0.85766759     0.00500
C2981       C  0.83033549  0.31938353  0.87219841    -0.11300
C2982       C  0.82651185  0.31179838  0.90406235     0.02700
H2983       H  0.92159155  0.32261770  0.92329937     0.15600
H2984       H  0.80415918  0.31783467  0.85873360     0.15600
C2985       C  0.78828108  0.30227052  0.91621440     0.37300
C2986       C  0.93940301  0.33368015  0.86661182     0.37200
N2987       N  0.75772864  0.29445372  0.92598290    -0.43000
N2988       N  0.97175469  0.33682034  0.85920165    -0.43000
C2989       C  0.86714939  0.32235370  0.64395550     0.00500
C2990       C  0.84784713  0.28826415  0.63486626    -0.11300
C2991       C  0.84177441  0.28042379  0.60352532     0.02800
C2992       C  0.85856482  0.30518013  0.58053714     0.00500
C2993       C  0.87726969  0.33973417  0.58964713    -0.11300
C2994       C  0.87958309  0.34948979  0.62113175     0.02700
H2995       H  0.83619179  0.26858191  0.65247398     0.14800
H2996       H  0.88870347  0.35970768  0.57215950     0.15600
C2997       C  0.88940740  0.38928963  0.62913647     0.37300
C2998       C  0.81797805  0.24687902  0.59593174     0.37200
N2999       N  0.89504120  0.42204501  0.63476547    -0.43000
N3000       N  0.79825473  0.22030919  0.59035437    -0.43000
C3001       C  0.87411368  0.18526419  0.91979713     0.00500
C3002       C  0.85147498  0.20827466  0.89973714    -0.11300
C3003       C  0.85349360  0.20285536  0.86765746     0.02800
C3004       C  0.87816736  0.17358957  0.85517157     0.00500
C3005       C  0.89896509  0.14886478  0.87533674    -0.11300
C3006       C  0.89710427  0.15459335  0.90754387     0.02700
H3007       H  0.83281771  0.23118136  0.90918849     0.15600
H3008       H  0.91596641  0.12460425  0.86587766     0.15600
C3009       C  0.91613398  0.12699022  0.92769222     0.37300
C3010       C  0.83043043  0.22762442  0.84771572     0.37200
N3011       N  0.93031884  0.10426738  0.94406846    -0.43000
N3012       N  0.81192702  0.24637354  0.83093763    -0.43000
C3013       C  0.88814388  0.18146835  0.57742035     0.00500
C3014       C  0.90781029  0.20726801  0.59729136    -0.11300
C3015       C  0.90790224  0.20105197  0.62930216     0.02800
C3016       C  0.88751068  0.16901143  0.64203008     0.00500
C3017       C  0.87020818  0.14147146  0.62203506    -0.11300
C3018       C  0.87119145  0.14727427  0.58973374     0.02700
H3019       H  0.92152918  0.23352586  0.58795139     0.15600
H3020       H  0.85667552  0.11530331  0.63165628     0.15600
C3021       C  0.85863412  0.11668807  0.56913285     0.37300
C3022       C  0.92780141  0.22866538  0.64891709     0.37200
N3023       N  0.85069696  0.09242324  0.55153608    -0.43000
N3024       N  0.94395349  0.25043530  0.66484936    -0.43000
O3025       O  0.91100072  0.70961033  0.03070293    -0.72200
O3026       O  0.89298294  0.79240446  0.46822641    -0.73200
O3027       O  0.89478367  0.78850936  0.03504683    -0.61800
O3028       O  0.90604182  0.71253944  0.46348723    -0.70300
O3029       O  0.84266828  0.70003539  0.46728400    -0.69800
O3030       O  0.83093918  0.77819147  0.03526590    -0.61100
O3031       O  0.82986783  0.77978337  0.46744783    -0.73600
O3032       O  0.84743436  0.69857014  0.03482087    -0.72300
Cu3033     Cu  0.90329574  0.75112151  0.49926899     1.04600
Cu3034     Cu  0.83548321  0.73874526  0.00131705     1.04300
C3035       C  0.88205745  0.69492224  0.04526171     0.94000
C3036       C  0.86009699  0.79569443  0.45511744     0.93100
C3037       C  0.86124427  0.79183947  0.04809051     0.85200
C3038       C  0.87493941  0.69761029  0.45250253     0.91500
O3039       O  0.98718346  0.55527429  0.03253947    -0.72200
O3040       O  0.96339404  0.97806527  0.46467196    -0.73200
O3041       O  0.96053317  0.97916325  0.03356954    -0.61800
O3042       O  0.99128007  0.55412610  0.46514483    -0.70300
O3043       O  0.80169364  0.53095293  0.46639816    -0.69800
O3044       O  0.77092578  0.95570741  0.03412082    -0.61100
O3045       O  0.77378106  0.95543923  0.46669138    -0.73600
O3046       O  0.79743301  0.53161890  0.03437953    -0.72300
Cu3047     Cu  0.97349424  0.51736043  0.99890094     1.04600
Cu3048     Cu  0.78796886  0.49273412  0.00043433     1.04300
C3049       C  0.76970428  0.55211852  0.04633336     0.94000
C3050       C  0.74124710  0.95767168  0.45275787     0.93100
C3051       C  0.73729955  0.95917503  0.04685175     0.85200
C3052       C  0.77525915  0.55101476  0.45293736     0.91500
C3053       C  0.96744882  0.62257483  0.25043923     0.30700
C3054       C  0.79716436  0.62544501  0.24919803     0.30700
C3055       C  0.98798733  0.60255123  0.22232451    -0.05500
C3056       C  0.98554577  0.66438081  0.25004558    -0.06300
C3057       C  0.98813469  0.60326809  0.27853068    -0.06100
C3058       C  0.77838555  0.60406560  0.22217990    -0.05500
C3059       C  0.77604872  0.66600512  0.24942189    -0.06300
C3060       C  0.77866996  0.60421711  0.27704815    -0.06200
C3061       C  0.79168473  0.58912551  0.19448722    -0.31500
N3062       N  0.76078610  0.58031378  0.17682646     0.15000
C3063       C  0.97774138  0.58732048  0.19371904    -0.31500
H3064       H  0.94857670  0.58397898  0.18495426     0.16900
C3065       C  0.78596946  0.70570968  0.24931767    -0.30500
N3066       N  0.75268256  0.72803203  0.24990800     0.13700
C3067       C  0.97182313  0.70293088  0.25037090    -0.30500
C3068       C  0.79272391  0.58996299  0.30450025    -0.30800
N3069       N  0.76245107  0.58342276  0.32393423     0.14200
H3070       H  0.82292068  0.58760958  0.31109970     0.16800
C3071       C  0.97878967  0.59041007  0.30838310    -0.30800
H3072       H  0.94997215  0.58835694  0.31864827     0.16800
H3073       H  0.94157863  0.71187156  0.25093614     0.16800
H3074       H  0.82164597  0.58749687  0.18658675     0.16900
H3075       H  0.81528843  0.71721964  0.24884572     0.16800
C3076       C  0.78551334  0.87567507  0.24910913     0.30700
C3077       C  0.95583236  0.87244078  0.24938433     0.30700
C3078       C  0.76534429  0.89467344  0.22080858    -0.05500
C3079       C  0.76745722  0.83374759  0.24976543    -0.06300
C3080       C  0.76469216  0.89618088  0.27670948    -0.06100
C3081       C  0.97488455  0.89322210  0.22142421    -0.05500
C3082       C  0.97696829  0.83200718  0.24968260    -0.06300
C3083       C  0.97432665  0.89413415  0.27689005    -0.06200
C3084       C  0.96183934  0.90874948  0.19394788    -0.31500
N3085       N  0.74292482  0.91772221  0.17578029     0.15000
C3086       C  0.77584831  0.91000229  0.19202545    -0.31500
H3087       H  0.80514025  0.91336201  0.18288902     0.16900
C3088       C  0.96706603  0.79231781  0.24972576    -0.30500
N3089       N  0.75035984  0.77003544  0.24995307     0.13700
C3090       C  0.78119557  0.79517695  0.25002997    -0.30500
C3091       C  0.96137573  0.90914824  0.30491919    -0.30800
N3092       N  0.74248619  0.91993865  0.32206690     0.14200
H3093       H  0.93156775  0.90935458  0.31320387     0.16800
C3094       C  0.77517118  0.91300091  0.30462526    -0.30800
H3095       H  0.80459048  0.91755700  0.31249957     0.16800
H3096       H  0.81143829  0.78624728  0.25014771     0.16800
H3097       H  0.93191365  0.91127162  0.18689664     0.16900
H3098       H  0.93775721  0.78079506  0.24950487     0.16800
C3099       C  0.83083382  0.87609662  0.24941291     0.30700
C3100       C  0.91058399  0.87270995  0.24919376     0.30700
C3101       C  0.85020132  0.85412308  0.22212137    -0.05500
C3102       C  0.85178252  0.91645633  0.24860581    -0.06300
C3103       C  0.84961064  0.85580294  0.27752201    -0.06100
C3104       C  0.89072377  0.85263036  0.22162717    -0.05500
C3105       C  0.89229727  0.91447956  0.24867212    -0.06300
C3106       C  0.88982500  0.85359610  0.27721185    -0.06200
C3107       C  0.90180317  0.83821797  0.19282454    -0.31500
N3108       N  0.86913587  0.83130215  0.17635178     0.15000
C3109       C  0.83765992  0.83958644  0.19434167    -0.31500
H3110       H  0.80789850  0.83761112  0.18684411     0.16900
C3111       C  0.90613296  0.95270903  0.24838467    -0.30500
N3112       N  0.87539776  0.97803852  0.24818046     0.13700
C3113       C  0.84196702  0.95621076  0.24825283    -0.30500
C3114       C  0.90070076  0.83846216  0.30539895    -0.30800
N3115       N  0.86861348  0.83407798  0.32416587     0.14200
H3116       H  0.93040301  0.83243275  0.31109056     0.16800
C3117       C  0.83725940  0.84318628  0.30632004    -0.30800
H3118       H  0.80728320  0.84313692  0.31393420     0.16800
H3119       H  0.81269485  0.96807069  0.24834135     0.16800
H3120       H  0.93118797  0.83527278  0.18372945     0.16900
H3121       H  0.93638980  0.96134023  0.24850943     0.16800
C3122       C  0.84235104  0.62500511  0.24877024     0.30700
C3123       C  0.92211371  0.62217331  0.24992265     0.30700
C3124       C  0.86152926  0.64506306  0.27643737    -0.05500
C3125       C  0.86085929  0.58337743  0.24906528    -0.06300
C3126       C  0.86325489  0.64453123  0.22115197    -0.06100
C3127       C  0.90190693  0.64336128  0.27725588    -0.05500
C3128       C  0.90136136  0.58160514  0.24968852    -0.06300
C3129       C  0.90382536  0.64321536  0.22175372    -0.06200
C3130       C  0.91270858  0.65756909  0.30577038    -0.31500
N3131       N  0.88008158  0.66674086  0.32232009     0.15000
C3132       C  0.84879201  0.66036517  0.30424341    -0.31500
H3133       H  0.81880205  0.66321427  0.31191349     0.16900
C3134       C  0.91129274  0.54181614  0.24940253    -0.30500
N3135       N  0.87793770  0.51988855  0.24857560     0.13700
C3136       C  0.84715447  0.54513352  0.24835628    -0.30500
C3137       C  0.91691092  0.65608571  0.19314572    -0.30800
N3138       N  0.88573557  0.66329427  0.17503230     0.14200
H3139       H  0.94681950  0.65750547  0.18512462     0.16800
C3140       C  0.85284541  0.65751367  0.19208133    -0.30800
H3141       H  0.82365441  0.66005782  0.18314616     0.16800
H3142       H  0.81693801  0.53644548  0.24762854     0.16800
H3143       H  0.94189365  0.65927080  0.31456707     0.16900
H3144       H  0.94057802  0.53000552  0.24967540     0.16800
C3145       C  0.74121797  0.92868951  0.35502200     0.00500
C3146       C  0.76923120  0.91199580  0.37463748    -0.11300
C3147       C  0.76782527  0.91802658  0.40684888     0.02800
C3148       C  0.73810328  0.94173703  0.42044283     0.00500
C3149       C  0.95949303  0.95761346  0.40082107    -0.11300
C3150       C  0.96114215  0.95181939  0.36852800     0.02700
H3151       H  0.79233305  0.89396529  0.36475127     0.15600
H3152       H  0.93710779  0.97689209  0.41039022     0.15600
C3153       C  0.93348210  0.97255575  0.34950044     0.37300
C3154       C  0.79868826  0.90156473  0.42525623     0.37200
N3155       N  0.91157416  0.98913055  0.33396589    -0.43000
N3156       N  0.82347713  0.89006892  0.44081175    -0.43000
C3157       C  0.74043811  0.92721303  0.14326592     0.00500
C3158       C  0.97168389  0.96195909  0.13412309    -0.11300
C3159       C  0.96619548  0.97051988  0.10259759     0.02800
C3160       C  0.73214551  0.94528823  0.07938336     0.00500
C3161       C  0.75005243  0.91000865  0.08870947    -0.11300
C3162       C  0.75246430  0.90009298  0.12025717     0.02700
H3163       H  0.96044123  0.98192116  0.15177487     0.15600
H3164       H  0.76157351  0.88986893  0.07129416     0.15600
C3165       C  0.76311810  0.86046142  0.12849494     0.37300
C3166       C  0.94451110  0.00569768  0.09498397     0.37200
N3167       N  0.76966405  0.82809739  0.13503225    -0.43000
N3168       N  0.92658495  0.53365146  0.08919045    -0.43000
C3169       C  0.78108833  0.56445372  0.42044167     0.00500
C3170       C  0.76337805  0.59947464  0.41035924    -0.11300
C3171       C  0.75804156  0.60669562  0.37859193     0.02800
C3172       C  0.76740681  0.57715747  0.35663820     0.00500
C3173       C  0.03832302  0.54403545  0.36640505    -0.11300
C3174       C  0.04641810  0.53816595  0.39780167     0.02700
H3175       H  0.75396830  0.62122827  0.42730466     0.15600
H3176       H  0.04883144  0.52301092  0.34924448     0.15600
C3177       C  0.07078012  0.50507479  0.40586124     0.37300
C3178       C  0.74663727  0.64566955  0.36885226     0.37200
N3179       N  0.09138084  0.97919213  0.41189970    -0.43000
N3180       N  0.73866915  0.67737399  0.36125136    -0.43000
C3181       C  0.77264923  0.56554957  0.07897036     0.00500
C3182       C  0.79314550  0.54104421  0.09945565    -0.11300
C3183       C  0.78901670  0.54524261  0.13154673     0.02800
C3184       C  0.76378709  0.57423502  0.14389704     0.00500
C3185       C  0.99503306  0.60039786  0.12361967    -0.11300
C3186       C  0.99959727  0.59646721  0.09134138     0.02700
H3187       H  0.81078584  0.51691665  0.09045796     0.15600
H3188       H  0.97730231  0.62416993  0.13306743     0.15600
C3189       C  0.98123118  0.62478373  0.07130697     0.37300
C3190       C  0.80988623  0.51845369  0.15141531     0.37200
N3191       N  0.96725910  0.64749988  0.05479179    -0.43000
N3192       N  0.82688228  0.49715341  0.16731260    -0.43000
C3193       C  0.85960855  0.81242829  0.42307749     0.00500
C3194       C  0.89560402  0.82206778  0.40925791    -0.11300
C3195       C  0.89988856  0.82818576  0.37730841     0.02800
C3196       C  0.86684492  0.82670607  0.35766935     0.00500
C3197       C  0.83033457  0.81938692  0.37220038    -0.11300
C3198       C  0.82651136  0.81180064  0.40406418     0.02700
H3199       H  0.92159120  0.82261929  0.42330086     0.15600
H3200       H  0.80415811  0.81783849  0.35873569     0.15600
C3201       C  0.78828068  0.80227221  0.41621589     0.37300
C3202       C  0.93940208  0.83368279  0.36661300     0.37200
N3203       N  0.75772804  0.79445455  0.42598350    -0.43000
N3204       N  0.97175369  0.83682299  0.35920260    -0.43000
C3205       C  0.86714534  0.82235352  0.14395673     0.00500
C3206       C  0.84784282  0.78826383  0.13486815    -0.11300
C3207       C  0.84177231  0.78042121  0.10352730     0.02800
C3208       C  0.85856413  0.80517642  0.08053888     0.00500
C3209       C  0.87726795  0.83973126  0.08964822    -0.11300
C3210       C  0.87958014  0.84948841  0.12113252     0.02700
H3211       H  0.83618680  0.76858252  0.15247627     0.14800
H3212       H  0.88870222  0.85970406  0.07216025     0.15600
C3213       C  0.88940466  0.88928850  0.12913631     0.37300
C3214       C  0.81797809  0.74687456  0.09593424     0.37200
N3215       N  0.89503860  0.92204405  0.13476459    -0.43000
N3216       N  0.79825679  0.72030283  0.09035780    -0.43000
C3217       C  0.87411270  0.68526479  0.41979675     0.00500
C3218       C  0.85147242  0.70827449  0.39973736    -0.11300
C3219       C  0.85349045  0.70285547  0.36765772     0.02800
C3220       C  0.87816459  0.67359014  0.35517150     0.00500
C3221       C  0.89896387  0.64886605  0.37533622    -0.11300
C3222       C  0.89710444  0.65459514  0.40754324     0.02700
H3223       H  0.83281495  0.73118090  0.40918909     0.15600
H3224       H  0.91596599  0.62460625  0.36587685     0.15600
C3225       C  0.91613759  0.62699454  0.42769168     0.37300
C3226       C  0.83042747  0.72762536  0.34771639     0.37200
N3227       N  0.93032509  0.60427451  0.44406885    -0.43000
N3228       N  0.81192438  0.74637566  0.33093886    -0.43000
C3229       C  0.88814546  0.68146718  0.07742049     0.00500
C3230       C  0.90781197  0.70726709  0.09729133    -0.11300
C3231       C  0.90790206  0.70105261  0.12930242     0.02800
C3232       C  0.88750761  0.66901404  0.14203071     0.00500
C3233       C  0.87020499  0.64147387  0.12203596    -0.11300
C3234       C  0.87119097  0.64727460  0.08973449     0.02700
H3235       H  0.92153257  0.73352379  0.08795093     0.15600
H3236       H  0.85667071  0.61530675  0.13165748     0.15600
C3237       C  0.85863475  0.61668747  0.06913406     0.37300
C3238       C  0.92780306  0.72866505  0.14891713     0.37200
N3239       N  0.85069912  0.59242187  0.05153750    -0.43000
N3240       N  0.94395679  0.75043389  0.16484926    -0.43000
O3241       O  0.91100003  0.70961009  0.53070288    -0.72200
O3242       O  0.89298309  0.79240479  0.96822657    -0.73200
O3243       O  0.89478287  0.78850931  0.53504665    -0.61800
O3244       O  0.90604177  0.71253972  0.96348714    -0.70300
O3245       O  0.84266820  0.70003601  0.96728420    -0.69800
O3246       O  0.83093845  0.77819118  0.53526540    -0.61100
O3247       O  0.82986791  0.77978397  0.96744829    -0.73600
O3248       O  0.84743370  0.69856976  0.53482066    -0.72300
Cu3249     Cu  0.90329615  0.75112175  0.99926904     1.04600
Cu3250     Cu  0.83548292  0.73874479  0.50131667     1.04300
C3251       C  0.88205676  0.69492182  0.54526156     0.94000
C3252       C  0.86009708  0.79569480  0.95511771     0.93100
C3253       C  0.86124335  0.79183945  0.54809012     0.85200
C3254       C  0.87493921  0.69761071  0.95250257     0.91500
O3255       O  0.98718306  0.55527417  0.53253934    -0.72200
O3256       O  0.96339381  0.97806591  0.96467174    -0.73200
O3257       O  0.96053377  0.97916271  0.53356951    -0.61800
O3258       O  0.99128083  0.55412643  0.96514477    -0.70300
O3259       O  0.80169385  0.53095227  0.96639832    -0.69800
O3260       O  0.77092661  0.95570772  0.53412070    -0.61100
O3261       O  0.77378062  0.95543862  0.96669155    -0.73600
O3262       O  0.79743297  0.53161956  0.53437927    -0.72300
Cu3263     Cu  0.97349428  0.51735992  0.49890103     1.04600
Cu3264     Cu  0.78796928  0.49273462  0.50043417     1.04300
C3265       C  0.76970405  0.55211892  0.54633306     0.94000
C3266       C  0.74124684  0.95767158  0.95275784     0.93100
C3267       C  0.73730035  0.95917479  0.54685166     0.85200
C3268       C  0.77525969  0.55101443  0.95293740     0.91500
C3269       C  0.96744860  0.62257439  0.75043942     0.30700
C3270       C  0.79716412  0.62544453  0.74919788     0.30700
C3271       C  0.98798699  0.60255123  0.72232442    -0.05500
C3272       C  0.98554558  0.66438035  0.75004615    -0.06300
C3273       C  0.98813465  0.60326714  0.77853061    -0.06100
C3274       C  0.77838514  0.60406562  0.72217959    -0.05500
C3275       C  0.77604853  0.66600471  0.74942223    -0.06300
C3276       C  0.77866991  0.60421607  0.77704787    -0.06200
C3277       C  0.79168414  0.58912587  0.69448677    -0.31500
N3278       N  0.76078541  0.58031436  0.67682604     0.15000
C3279       C  0.97774085  0.58732068  0.69371890    -0.31500
H3280       H  0.94857612  0.58397905  0.68495427     0.16900
C3281       C  0.78596927  0.70570930  0.74931794    -0.30500
N3282       N  0.75268237  0.72803165  0.74990844     0.13700
C3283       C  0.97182296  0.70293043  0.75037141    -0.30500
C3284       C  0.79272408  0.58996165  0.80449986    -0.30800
N3285       N  0.76245139  0.58342153  0.82393404     0.14200
H3286       H  0.82292092  0.58760817  0.81109916     0.16800
C3287       C  0.97878990  0.59040900  0.80838307    -0.30800
H3288       H  0.94997246  0.58835618  0.81864845     0.16800
H3289       H  0.94157845  0.71187110  0.75093652     0.16800
H3290       H  0.82164535  0.58749717  0.68658621     0.16900
H3291       H  0.81528823  0.71721928  0.74884565     0.16800
C3292       C  0.78551335  0.87567445  0.74910909     0.30700
C3293       C  0.95583233  0.87244035  0.74938409     0.30700
C3294       C  0.76534447  0.89467298  0.72080855    -0.05500
C3295       C  0.76745713  0.83374707  0.74976524    -0.06300
C3296       C  0.76469213  0.89618012  0.77670949    -0.06100
C3297       C  0.97488464  0.89322169  0.72142400    -0.05500
C3298       C  0.97696824  0.83200676  0.74968247    -0.06300
C3299       C  0.97432653  0.89413370  0.77688985    -0.06200
C3300       C  0.96183959  0.90874926  0.69394767    -0.31500
N3301       N  0.74292527  0.91772216  0.67578030     0.15000
C3302       C  0.77584866  0.91000202  0.69202552    -0.31500
H3303       H  0.80514066  0.91336170  0.68288917     0.16900
C3304       C  0.96706594  0.79231742  0.74972578    -0.30500
N3305       N  0.75035965  0.77003503  0.74995324     0.13700
C3306       C  0.78119542  0.79517647  0.75002999    -0.30500
C3307       C  0.96137553  0.90914776  0.80491898    -0.30800
N3308       N  0.74248600  0.91993790  0.82206688     0.14200
H3309       H  0.93156751  0.90935423  0.81320360     0.16800
C3310       C  0.77517104  0.91300003  0.80462534    -0.30800
H3311       H  0.80459033  0.91755613  0.81249971     0.16800
H3312       H  0.81143812  0.78624674  0.75014790     0.16800
H3313       H  0.93191397  0.91127140  0.68689630     0.16900
H3314       H  0.93775710  0.78079472  0.74950484     0.16800
C3315       C  0.83083381  0.87609591  0.74941286     0.30700
C3316       C  0.91058396  0.87270942  0.74919352     0.30700
C3317       C  0.85020124  0.85412232  0.72212129    -0.05500
C3318       C  0.85178243  0.91645569  0.74860567    -0.06300
C3319       C  0.84961071  0.85580229  0.77752195    -0.06100
C3320       C  0.89072369  0.85262980  0.72162693    -0.05500
C3321       C  0.89229717  0.91447900  0.74867190    -0.06300
C3322       C  0.88982507  0.85359552  0.77721172    -0.06200
C3323       C  0.90180293  0.83821785  0.69282410    -0.31500
N3324       N  0.86913556  0.83130182  0.67635147     0.15000
C3325       C  0.83765971  0.83958576  0.69434158    -0.31500
H3326       H  0.80789827  0.83761037  0.68684416     0.16900
C3327       C  0.90613282  0.95270849  0.74838415    -0.30500
N3328       N  0.87539762  0.97803798  0.74817977     0.13700
C3329       C  0.84196690  0.95621014  0.74825238    -0.30500
C3330       C  0.90070087  0.83846166  0.80539887    -0.30800
N3331       N  0.86861360  0.83407746  0.82416585     0.14200
H3332       H  0.93040311  0.83243235  0.81109049     0.16800
C3333       C  0.83725952  0.84318568  0.80632001    -0.30800
H3334       H  0.80728332  0.84313630  0.81393419     0.16800
H3335       H  0.81269472  0.96807006  0.74834080     0.16800
H3336       H  0.93118766  0.83527305  0.68372880     0.16900
H3337       H  0.93638966  0.96133969  0.74850876     0.16800
C3338       C  0.84235078  0.62500465  0.74876997     0.30700
C3339       C  0.92211343  0.62217291  0.74992269     0.30700
C3340       C  0.86152882  0.64506218  0.77643737    -0.05500
C3341       C  0.86085905  0.58337697  0.74906461    -0.06300
C3342       C  0.86325475  0.64453132  0.72115197    -0.06100
C3343       C  0.90190645  0.64336040  0.77725603    -0.05500
C3344       C  0.90136111  0.58160473  0.74968805    -0.06300
C3345       C  0.90382523  0.64321552  0.72175389    -0.06200
C3346       C  0.91270795  0.65756830  0.80577050    -0.31500
N3347       N  0.88008088  0.66674020  0.82232011     0.15000
C3348       C  0.84879141  0.66036443  0.80424334    -0.31500
H3349       H  0.81880139  0.66321360  0.81191327     0.16900
C3350       C  0.91129252  0.54181575  0.74940196    -0.30500
N3351       N  0.87793753  0.51988809  0.74857473     0.13700
C3352       C  0.84715427  0.54513302  0.74835533    -0.30500
C3353       C  0.91691095  0.65608585  0.69314587    -0.30800
N3354       N  0.88573570  0.66329427  0.67503230     0.14200
H3355       H  0.94681953  0.65750557  0.68512483     0.16800
C3356       C  0.85284545  0.65751366  0.69208125    -0.30800
H3357       H  0.82365452  0.66005763  0.68314594     0.16800
H3358       H  0.81693782  0.53644491  0.74762751     0.16800
H3359       H  0.94189303  0.65927006  0.81456720     0.16900
H3360       H  0.94057782  0.53000520  0.74967510     0.16800
C3361       C  0.74121767  0.92868899  0.85502195     0.00500
C3362       C  0.76923115  0.91199577  0.87463741    -0.11300
C3363       C  0.76782543  0.91802688  0.90684875     0.02800
C3364       C  0.73810313  0.94173692  0.92044276     0.00500
C3365       C  0.95949255  0.95761345  0.90082083    -0.11300
C3366       C  0.96114174  0.95181923  0.86852773     0.02700
H3367       H  0.79233313  0.89396542  0.86475122     0.15600
H3368       H  0.93710721  0.97689199  0.91038995     0.15600
C3369       C  0.93348192  0.97255569  0.84950004     0.37300
C3370       C  0.79868896  0.90156562  0.92525584     0.37200
N3371       N  0.91157423  0.98913063  0.83396536    -0.43000
N3372       N  0.82347834  0.89007016  0.94081099    -0.43000
C3373       C  0.74043876  0.92721295  0.64326590     0.00500
C3374       C  0.97168440  0.96195884  0.63412290    -0.11300
C3375       C  0.96619613  0.97051950  0.60259738     0.02800
C3376       C  0.73214648  0.94528792  0.57938327     0.00500
C3377       C  0.75005372  0.91000854  0.58870950    -0.11300
C3378       C  0.75246532  0.90009295  0.62025724     0.02700
H3379       H  0.96044141  0.98192081  0.65177463     0.15600
H3380       H  0.76157507  0.88986883  0.57129427     0.15600
C3381       C  0.76311877  0.86046139  0.62849521     0.37300
C3382       C  0.94451071  0.00569664  0.59498369     0.37200
N3383       N  0.76966418  0.82809737  0.63503288    -0.43000
N3384       N  0.92658336  0.53364943  0.58919019    -0.43000
C3385       C  0.78108908  0.56445305  0.92044160     0.00500
C3386       C  0.76337893  0.59947398  0.91035899    -0.11300
C3387       C  0.75804221  0.60669466  0.87859167     0.02800
C3388       C  0.76740736  0.57715639  0.85663804     0.00500
C3389       C  0.03832384  0.54403433  0.86640496    -0.11300
C3390       C  0.04641901  0.53816511  0.89780163     0.02700
H3391       H  0.75396935  0.62122778  0.92730430     0.15600
H3392       H  0.04883237  0.52300975  0.84924445     0.15600
C3393       C  0.07078154  0.50507436  0.90586132     0.37300
C3394       C  0.74663768  0.64566845  0.86885181     0.37200
N3395       N  0.09138293  0.97919222  0.91189988    -0.43000
N3396       N  0.73866933  0.67737274  0.86125069    -0.43000
C3397       C  0.77264887  0.56555009  0.57897001     0.00500
C3398       C  0.79314509  0.54104480  0.59945536    -0.11300
C3399       C  0.78901603  0.54524309  0.63154641     0.02800
C3400       C  0.76378629  0.57423545  0.64389664     0.00500
C3401       C  0.99503226  0.60039813  0.62361928    -0.11300
C3402       C  0.99959654  0.59646741  0.59134099     0.02700
H3403       H  0.81078561  0.51691736  0.59045771     0.15600
H3404       H  0.97730142  0.62417017  0.63306697     0.15600
C3405       C  0.98123041  0.62478367  0.57130638     0.37300
C3406       C  0.80988533  0.51845401  0.65141504     0.37200
N3407       N  0.96725835  0.64749940  0.55479084    -0.43000
N3408       N  0.82688102  0.49715347  0.66731236    -0.43000
C3409       C  0.85960863  0.81242841  0.92307764     0.00500
C3410       C  0.89560411  0.82206778  0.90925798    -0.11300
C3411       C  0.89988866  0.82818556  0.87730844     0.02800
C3412       C  0.86684503  0.82670574  0.85766938     0.00500
C3413       C  0.83033467  0.81938664  0.87220046    -0.11300
C3414       C  0.82651146  0.81180058  0.90406433     0.02700
H3415       H  0.92159129  0.82261938  0.92330091     0.15600
H3416       H  0.80415824  0.81783803  0.85873577     0.15600
C3417       C  0.78828079  0.80227211  0.91621609     0.37300
C3418       C  0.93940220  0.83368245  0.86661296     0.37200
N3419       N  0.75772814  0.79445453  0.92598372    -0.43000
N3420       N  0.97175379  0.83682248  0.85920240    -0.43000
C3421       C  0.86714481  0.82235334  0.64395636     0.00500
C3422       C  0.84784227  0.78826365  0.63486775    -0.11300
C3423       C  0.84177148  0.78042122  0.60352689     0.02800
C3424       C  0.85856296  0.80517658  0.58053846     0.00500
C3425       C  0.87726671  0.83973146  0.58964781    -0.11300
C3426       C  0.87957930  0.84948841  0.62113215     0.02700
H3427       H  0.83618647  0.76858222  0.65247584     0.14800
H3428       H  0.88870077  0.85970434  0.57215984     0.15600
C3429       C  0.88940431  0.88928838  0.62913597     0.37300
C3430       C  0.81797738  0.74687455  0.59593373     0.37200
N3431       N  0.89503896  0.92204384  0.63476415    -0.43000
N3432       N  0.79825627  0.72030281  0.59035691    -0.43000
C3433       C  0.87411221  0.68526487  0.91979680     0.00500
C3434       C  0.85147121  0.70827386  0.89973741    -0.11300
C3435       C  0.85348913  0.70285467  0.86765773     0.02800
C3436       C  0.87816382  0.67358977  0.85517151     0.00500
C3437       C  0.89896377  0.64886633  0.87533626    -0.11300
C3438       C  0.89710449  0.65459564  0.90754326     0.02700
H3439       H  0.83281341  0.73118001  0.90918913     0.15600
H3440       H  0.91596633  0.62460682  0.86587695     0.15600
C3441       C  0.91613861  0.62699566  0.92769162     0.37300
C3442       C  0.83042563  0.72762417  0.84771645     0.37200
N3443       N  0.93032694  0.60427603  0.94406866    -0.43000
N3444       N  0.81192215  0.74637428  0.83093905    -0.43000
C3445       C  0.88814490  0.68146679  0.57742036     0.00500
C3446       C  0.90781093  0.70726716  0.59729111    -0.11300
C3447       C  0.90790144  0.70105273  0.62930219     0.02800
C3448       C  0.88750787  0.66901370  0.64203064     0.00500
C3449       C  0.87020605  0.64147291  0.62203594    -0.11300
C3450       C  0.87119171  0.64727355  0.58973443     0.02700
H3451       H  0.92153090  0.73352416  0.58795064     0.15600
H3452       H  0.85667261  0.61530538  0.63165756     0.15600
C3453       C  0.85863674  0.61668569  0.56913416     0.37300
C3454       C  0.92780227  0.72866557  0.64891664     0.37200
N3455       N  0.85070191  0.59241933  0.55153801    -0.43000
N3456       N  0.94395606  0.75043483  0.66484837    -0.43000
loop_ 
_geom_bond_atom_site_label_1 
_geom_bond_atom_site_label_2 
_geom_bond_distance 
_geom_bond_site_symmetry_2 
_ccdc_geom_bond_type 
O1           C11   1.272       .  A
O1         Cu225   1.974   1_554  S
O2           C12   1.274       .  A
O2           Cu9   1.971       .  S
O3           C13   1.279       .  A
O3         Cu225   2.014   1_554  S
O4           C14   1.281       .  A
O4           Cu9   2.024       .  S
O5           C14   1.273       .  A
O5         Cu226   1.981       .  S
O6           C13   1.274       .  A
O6          Cu10   1.987       .  S
O7           C12   1.282       .  A
O7         Cu226   2.028       .  S
O8           C11   1.282       .  A
O8          Cu10   2.031       .  S
Cu9         O217   1.974       .  S
Cu9         O219   2.014       .  S
Cu9        Cu226   2.369       .  S
Cu10        O221   1.981   1_554  S
Cu10        O223   2.028   1_554  S
Cu10       Cu225   2.369   1_554  S
C11         C205   1.477       .  S
C12         C169   1.493       .  S
C13         C184   1.472       .  S
C14         C193   1.471       .  S
O15         C889   1.276       .  A
O15         Cu23   2.000   1_554  S
O16         C890   1.280       .  A
O16        Cu671   2.023       .  S
O17         C891   1.281       .  A
O17        Cu455   2.025   1_554  S
O18         C892   1.277       .  A
O18        Cu239   2.008       .  S
O19          C28   1.278       .  A
O19        Cu240   2.011   1_545  S
O20          C27   1.277   1_455  A
O20        Cu456   2.004       .  S
O21          C26   1.277   1_455  A
O21        Cu672   1.995       .  S
O22          C25   1.279       .  A
O22         Cu24   2.001   1_545  S
Cu23        O664   2.023   1_545  S
Cu23        O449   2.025   1_546  S
Cu23        O234   2.008       .  S
Cu23       Cu888   2.364   1_546  S
Cu24        O235   2.011   1_564  S
Cu24        O452   2.004       .  S
Cu24        O669   1.995   1_554  S
Cu24      Cu2615   2.364   1_464  S
C25        O2607   1.276   1_455  A
C25         C157   1.484       .  S
C26        O2608   1.280       .  A
C26         C124   1.499       .  S
C27        O2609   1.281       .  A
C27         C136   1.488       .  S
C28        O2610   1.277   1_455  A
C28         C145   1.484       .  S
C29          C31   1.549       .  S
C29          C33   1.555       .  S
C29          C32   1.552       .  S
C29          C99   1.557       .  S
C30          C34   1.524       .  S
C30          C36   1.532       .  S
C30          C35   1.553       .  S
C30          C98   1.552       .  S
C31          C39   1.387       .  A
C31         C898   1.388       .  A
C32          C43   1.388       .  A
C32         C899   1.392       .  A
C33          C47   1.393       .  A
C33         C900   1.393       .  A
C34          C37   1.369       .  A
C34        C2623   1.388   1_455  A
C35          C41   1.391       .  A
C35        C2624   1.392   1_455  A
C36          C44   1.371       .  A
C36        C2625   1.393   1_455  A
C37          N38   1.349       .  A
C37          H50   1.081       .  S
N38        C2631   1.360   1_455  A
N38         C160   1.436       .  S
C39         N902   1.360       .  A
C39          H40   1.082       .  S
C41          N42   1.368       .  A
C41          H51   1.082       .  S
N42        C2635   1.363   1_455  A
N42          N65   1.427       .  S
C43         N906   1.363       .  A
C43          H49   1.081       .  S
C44          N45   1.346       .  A
C44          H46   1.081       .  S
N45        C2639   1.364   1_455  A
N45         C148   1.438       .  S
C47         N909   1.364       .  A
C47          H48   1.081       .  S
C52          C54   1.550       .  S
C52          C56   1.544       .  S
C52          C55   1.555       .  S
C52          C75   1.557       .  S
C53          C57   1.537       .  S
C53          C59   1.541       .  S
C53          C58   1.549       .  S
C53          C76   1.554       .  S
C54          C62   1.389       .  A
C54        C2649   1.390   1_455  A
C55          C66   1.389       .  A
C55        C2650   1.392   1_455  A
C56          C70   1.384       .  A
C56        C2651   1.388   1_455  A
C57          C60   1.376       .  A
C57         C918   1.390       .  A
C58          C64   1.391       .  A
C58         C919   1.392       .  A
C59          C67   1.379       .  A
C59         C920   1.388       .  A
C60         N925   1.351       .  A
C60          H73   1.078       .  S
N61          C62   1.362   1_655  A
N61        C2652   1.351       .  A
N61         C133   1.442       .  S
C62          H63   1.082       .  S
C64         N929   1.368       .  A
C64          H74   1.082       .  S
N65          C66   1.363       .  A
N65        C2656   1.368   1_455  A
C66          H72   1.080       .  S
C67         N932   1.359       .  A
C67          H69   1.080       .  S
N68          C70   1.362   1_655  A
N68        C2659   1.359       .  A
N68         C121   1.451       .  S
C70          H71   1.082       .  S
C75          C77   1.535       .  S
C75          C79   1.541       .  S
C75          C78   1.550       .  S
C76          C80   1.538       .  S
C76          C82   1.539       .  S
C76          C81   1.548       .  S
C77          C85   1.370       .  A
C77          C80   1.392       .  A
C78          C89   1.389       .  A
C78          C81   1.393       .  A
C79          C93   1.375       .  A
C79          C82   1.382       .  A
C80          C83   1.382       .  A
C81          C87   1.384       .  A
C82          C90   1.375       .  A
C83          N84   1.357       .  A
C83          H96   1.082       .  S
N84          C85   1.350       .  A
N84         C181   1.431       .  S
C85          H86   1.078       .  S
C87          N88   1.358       .  A
C87          H97   1.081       .  S
N88          C89   1.369       .  A
N88         N543   1.423       .  S
C89          H95   1.081       .  S
C90          N91   1.367       .  A
C90          H92   1.071       .  S
N91          C93   1.366       .  A
N91         C172   1.466       .  S
C93          H94   1.076       .  S
C98         C100   1.531       .  S
C98         C102   1.534       .  S
C98         C101   1.546       .  S
C99         C103   1.536       .  S
C99         C105   1.547       .  S
C99         C104   1.553       .  S
C100        C108   1.372       .  A
C100        C103   1.388       .  A
C101        C112   1.383       .  A
C101        C104   1.392       .  A
C102        C116   1.379       .  A
C102        C105   1.394       .  A
C103        C106   1.376       .  A
C104        C110   1.391       .  A
C105        C113   1.379       .  A
C106        N107   1.355       .  A
C106        H119   1.078       .  S
N107        C108   1.354       .  A
N107        C196   1.435       .  S
C108        H109   1.081       .  S
C110        N111   1.370       .  A
C110        H120   1.081       .  S
N111        C112   1.357       .  A
N111        N520   1.423   1_545  S
C112        H118   1.081       .  S
C113        N114   1.355       .  A
C113        H115   1.081       .  S
N114        C116   1.354       .  A
N114        C208   1.436       .  S
C116        H117   1.082       .  S
C121        C122   1.406   1_655  A
C121       C2718   1.413       .  A
C122        C123   1.404       .  A
C122        H127   1.082       .  S
C123        C124   1.417   1_455  A
C123        C130   1.443       .  S
C124       C2717   1.410       .  A
C125        C126   1.406       .  A
C125        C988   1.410       .  A
C125        H128   1.084       .  S
C126        C985   1.413       .  A
C126        C129   1.444       .  S
C129        N131   1.158       .  T
C130        N132   1.157       .  T
C133        C138   1.409   1_655  A
C133       C2726   1.400       .  A
C134        C135   1.405       .  A
C134        C997   1.400       .  A
C134        H139   1.085       .  S
C135       C1000   1.419       .  A
C135        C142   1.444       .  S
C136        C137   1.404   1_655  A
C136       C2727   1.419       .  A
C137        C138   1.404       .  A
C137        H140   1.085       .  S
C138        C141   1.438       .  S
C141        N143   1.156       .  T
C142        N576   1.157       .  T
N144        C574   1.157       .  T
C145        C146   1.404       .  A
C145       C2742   1.417       .  A
C146        C147   1.405       .  A
C146        H151   1.084       .  S
C147        C148   1.411       .  A
C147        C154   1.442   1_455  S
C148       C2741   1.399       .  A
C149        C150   1.399       .  A
C149       C1012   1.399       .  A
C149        H152   1.085       .  S
C150       C1009   1.417       .  A
C150        C153   1.442       .  S
C153        N587   1.157   1_545  T
C154        N156   1.157       .  T
N155        C585   1.157       .  T
C157        C158   1.406       .  A
C157       C2754   1.411   1_455  A
C158        C159   1.396       .  A
C158        H163   1.085       .  S
C159        C160   1.408       .  A
C159        C166   1.443       .  S
C160       C2753   1.406   1_455  A
C161        C162   1.404       .  A
C161       C1024   1.406       .  A
C161        H164   1.084       .  S
C162       C1021   1.411       .  A
C162        C165   1.441       .  S
C165        N167   1.156       .  T
C166        N168   1.157   1_545  T
C169        C170   1.405       .  A
C169        C174   1.410       .  A
C170        C171   1.399       .  A
C170        H175   1.085       .  S
C171        C172   1.426       .  A
C171        C178   1.440       .  S
C172        C173   1.417       .  A
C173        C174   1.402       .  A
C173        H176   1.078       .  S
C174        C177   1.445       .  S
C177        N179   1.157       .  T
C178        N180   1.157       .  T
C181        C182   1.395       .  A
C181        C186   1.411       .  A
C182        C183   1.395       .  A
C182        H187   1.085       .  S
C183        C184   1.418       .  A
C183        C190   1.445       .  S
C184        C185   1.398       .  A
C185        C186   1.400       .  A
C185        H188   1.085       .  S
C186        C189   1.437       .  S
C189        N191   1.155       .  T
C190        N192   1.157       .  T
C193        C194   1.405       .  A
C193        C198   1.402       .  A
C194        C195   1.396       .  A
C194        H199   1.081       .  S
C195        C196   1.405       .  A
C195        C202   1.444       .  S
C196        C197   1.407       .  A
C197        C198   1.402       .  A
C197        H200   1.083       .  S
C198        C201   1.438       .  S
C201        N203   1.156       .  T
C202        N204   1.158       .  T
C205        C206   1.406       .  A
C205        C210   1.402       .  A
C206        C207   1.396       .  A
C206        H211   1.085       .  S
C207        C208   1.404       .  A
C207        C214   1.443       .  S
C208        C209   1.410       .  A
C209        C210   1.406       .  A
C209        H212   1.084       .  S
C210        C213   1.437       .  S
C213        N215   1.155       .  T
C214        N216   1.157       .  T
O217        C227   1.272       .  A
O218        C228   1.274       .  A
O218       Cu225   1.971       .  S
O219        C229   1.279       .  A
O220        C230   1.281       .  A
O220       Cu225   2.024       .  S
O221        C230   1.273       .  A
O222        C229   1.274       .  A
O222       Cu226   1.987       .  S
O223        C228   1.282       .  A
O224        C227   1.282       .  A
O224       Cu226   2.031       .  S
C227        C421   1.477       .  S
C228        C385   1.493       .  S
C229        C400   1.472       .  S
C230        C409   1.471       .  S
O231       C1105   1.276       .  A
O231       Cu239   2.000       .  S
O232       C1106   1.280       .  A
O232       Cu455   2.023       .  S
O233       C1107   1.281       .  A
O233       Cu671   2.025       .  S
O234       C1108   1.277       .  A
O235        C244   1.278       .  A
O236        C243   1.277   1_455  A
O236       Cu672   2.004       .  S
O237        C242   1.277   1_455  A
O237       Cu456   1.995   1_556  S
O238        C241   1.279       .  A
O238       Cu240   2.001   1_545  S
Cu239       O448   2.023   1_545  S
Cu239       O665   2.025   1_545  S
Cu239     Cu1104   2.364   1_545  S
Cu240       O668   2.004       .  S
Cu240       O453   1.995       .  S
Cu240     Cu2831   2.364   1_465  S
C241       O2823   1.276   1_455  A
C241        C373   1.484       .  S
C242       O2824   1.280       .  A
C242        C340   1.499       .  S
C243       O2825   1.281       .  A
C243        C352   1.488       .  S
C244       O2826   1.277   1_455  A
C244        C361   1.484       .  S
C245        C247   1.549       .  S
C245        C249   1.555       .  S
C245        C248   1.552       .  S
C245        C315   1.557       .  S
C246        C250   1.524       .  S
C246        C252   1.532       .  S
C246        C251   1.553       .  S
C246        C314   1.552       .  S
C247        C255   1.387       .  A
C247       C1114   1.388       .  A
C248        C259   1.388       .  A
C248       C1115   1.392       .  A
C249        C263   1.393       .  A
C249       C1116   1.393       .  A
C250       C2839   1.388   1_455  A
C250        C253   1.369       .  A
C251       C2840   1.392   1_455  A
C251        C257   1.391       .  A
C252       C2841   1.393   1_455  A
C252        C260   1.371       .  A
C253        N254   1.349       .  A
C253        H266   1.081       .  S
N254       C2847   1.360   1_455  A
N254        C376   1.436       .  S
C255       N1118   1.360       .  A
C255        H256   1.082       .  S
C257        N258   1.368       .  A
C257        H267   1.082       .  S
N258       C2851   1.363   1_455  A
N258        N281   1.427       .  S
C259       N1122   1.363       .  A
C259        H265   1.081       .  S
C260        N261   1.346       .  A
C260        H262   1.081       .  S
N261       C2855   1.364   1_455  A
N261        C364   1.438       .  S
C263       N1125   1.364       .  A
C263        H264   1.081       .  S
C268        C270   1.550       .  S
C268        C272   1.544       .  S
C268        C271   1.555       .  S
C268        C291   1.557       .  S
C269        C273   1.537       .  S
C269        C275   1.541       .  S
C269        C274   1.549       .  S
C269        C292   1.554       .  S
C270        C278   1.389       .  A
C270       C2865   1.390   1_455  A
C271        C282   1.389       .  A
C271       C2866   1.392   1_455  A
C272        C286   1.384       .  A
C272       C2867   1.388   1_455  A
C273       C1134   1.390       .  A
C273        C276   1.376       .  A
C274       C1135   1.392       .  A
C274        C280   1.391       .  A
C275       C1136   1.388       .  A
C275        C283   1.379       .  A
C276       N1141   1.351       .  A
C276        H289   1.078       .  S
N277       C2868   1.351       .  A
N277        C278   1.362   1_655  A
N277        C349   1.442       .  S
C278        H279   1.082       .  S
C280       N1145   1.368       .  A
C280        H290   1.082       .  S
N281       C2872   1.368   1_455  A
N281        C282   1.363       .  A
C282        H288   1.080       .  S
C283       N1148   1.359       .  A
C283        H285   1.080       .  S
N284       C2875   1.359       .  A
N284        C286   1.362   1_655  A
N284        C337   1.451       .  S
C286        H287   1.082       .  S
C291        C293   1.535       .  S
C291        C295   1.541       .  S
C291        C294   1.550       .  S
C292        C296   1.538       .  S
C292        C298   1.539       .  S
C292        C297   1.548       .  S
C293        C301   1.370       .  A
C293        C296   1.392       .  A
C294        C305   1.389       .  A
C294        C297   1.393       .  A
C295        C309   1.375       .  A
C295        C298   1.382       .  A
C296        C299   1.382       .  A
C297        C303   1.384       .  A
C298        C306   1.375       .  A
C299        N300   1.357       .  A
C299        H312   1.082       .  S
N300        C301   1.350       .  A
N300        C397   1.431       .  S
C301        H302   1.078       .  S
C303        N304   1.358       .  A
C303        H313   1.081       .  S
N304        C305   1.369       .  A
N304        N759   1.423       .  S
C305        H311   1.081       .  S
C306        N307   1.367       .  A
C306        H308   1.071       .  S
N307        C309   1.366       .  A
N307        C388   1.466       .  S
C309        H310   1.076       .  S
C314        C316   1.531       .  S
C314        C318   1.534       .  S
C314        C317   1.546       .  S
C315        C319   1.536       .  S
C315        C321   1.547       .  S
C315        C320   1.553       .  S
C316        C324   1.372       .  A
C316        C319   1.388       .  A
C317        C328   1.383       .  A
C317        C320   1.392       .  A
C318        C332   1.379       .  A
C318        C321   1.394       .  A
C319        C322   1.376       .  A
C320        C326   1.391       .  A
C321        C329   1.379       .  A
C322        N323   1.355       .  A
C322        H335   1.078       .  S
N323        C324   1.354       .  A
N323        C412   1.435       .  S
C324        H325   1.081       .  S
C326        N327   1.370       .  A
C326        H336   1.081       .  S
N327        C328   1.357       .  A
N327        N736   1.423   1_545  S
C328        H334   1.081       .  S
C329        N330   1.355       .  A
C329        H331   1.081       .  S
N330        C332   1.354       .  A
N330        C424   1.436       .  S
C332        H333   1.082       .  S
C337        C338   1.406   1_655  A
C337       C2934   1.413       .  A
C338        C339   1.404       .  A
C338        H343   1.082       .  S
C339        C340   1.417   1_455  A
C339        C346   1.443       .  S
C340       C2933   1.410       .  A
C341       C1204   1.410       .  A
C341        C342   1.406       .  A
C341        H344   1.084       .  S
C342       C1201   1.413       .  A
C342        C345   1.444       .  S
C345        N347   1.158       .  T
C346        N348   1.157       .  T
C349       C2942   1.400       .  A
C349        C354   1.409   1_655  A
C350       C1213   1.400       .  A
C350        C351   1.405       .  A
C350        H355   1.085       .  S
C351       C1216   1.419       .  A
C351        C358   1.444       .  S
C352       C2943   1.419       .  A
C352        C353   1.404   1_655  A
C353        C354   1.404       .  A
C353        H356   1.085       .  S
C354        C357   1.438       .  S
C357        N359   1.156       .  T
C358        N792   1.157       .  T
N360        C790   1.157       .  T
C361        C362   1.404       .  A
C361       C2958   1.417       .  A
C362        C363   1.405       .  A
C362        H367   1.084       .  S
C363        C364   1.411       .  A
C363        C370   1.442   1_455  S
C364       C2957   1.399       .  A
C365       C1228   1.399       .  A
C365        C366   1.399       .  A
C365        H368   1.085       .  S
C366       C1225   1.417       .  A
C366        C369   1.442       .  S
C369        N803   1.157   1_545  T
C370        N372   1.157       .  T
N371        C801   1.157       .  T
C373        C374   1.406       .  A
C373       C2970   1.411   1_455  A
C374        C375   1.396       .  A
C374        H379   1.085       .  S
C375        C376   1.408       .  A
C375        C382   1.443       .  S
C376       C2969   1.406   1_455  A
C377       C1240   1.406       .  A
C377        C378   1.404       .  A
C377        H380   1.084       .  S
C378       C1237   1.411       .  A
C378        C381   1.441       .  S
C381        N383   1.156       .  T
C382        N384   1.157   1_545  T
C385        C386   1.405       .  A
C385        C390   1.410       .  A
C386        C387   1.399       .  A
C386        H391   1.085       .  S
C387        C388   1.426       .  A
C387        C394   1.440       .  S
C388        C389   1.417       .  A
C389        C390   1.402       .  A
C389        H392   1.078       .  S
C390        C393   1.445       .  S
C393        N395   1.157       .  T
C394        N396   1.157       .  T
C397        C398   1.395       .  A
C397        C402   1.411       .  A
C398        C399   1.395       .  A
C398        H403   1.085       .  S
C399        C400   1.418       .  A
C399        C406   1.445       .  S
C400        C401   1.398       .  A
C401        C402   1.400       .  A
C401        H404   1.085       .  S
C402        C405   1.437       .  S
C405        N407   1.155       .  T
C406        N408   1.157       .  T
C409        C410   1.405       .  A
C409        C414   1.402       .  A
C410        C411   1.396       .  A
C410        H415   1.081       .  S
C411        C412   1.405       .  A
C411        C418   1.444       .  S
C412        C413   1.407       .  A
C413        C414   1.402       .  A
C413        H416   1.083       .  S
C414        C417   1.438       .  S
C417        N419   1.156       .  T
C418        N420   1.158       .  T
C421        C422   1.406       .  A
C421        C426   1.402       .  A
C422        C423   1.396       .  A
C422        H427   1.085       .  S
C423        C424   1.404       .  A
C423        C430   1.443       .  S
C424        C425   1.410       .  A
C425        C426   1.406       .  A
C425        H428   1.084       .  S
C426        C429   1.437       .  S
C429        N431   1.155       .  T
C430        N432   1.157       .  T
O433        C443   1.272       .  A
O433       Cu657   1.974   1_554  S
O434        C444   1.274       .  A
O434       Cu441   1.971       .  S
O435        C445   1.279       .  A
O435       Cu657   2.014   1_554  S
O436        C446   1.281       .  A
O436       Cu441   2.024       .  S
O437        C446   1.273       .  A
O437       Cu658   1.981       .  S
O438        C445   1.274       .  A
O438       Cu442   1.987       .  S
O439        C444   1.282       .  A
O439       Cu658   2.028       .  S
O440        C443   1.282       .  A
O440       Cu442   2.031       .  S
Cu441       O649   1.974       .  S
Cu441       O651   2.014       .  S
Cu441      Cu658   2.369       .  S
Cu442       O653   1.981   1_554  S
Cu442       O655   2.028   1_554  S
Cu442      Cu657   2.369   1_554  S
C443        C637   1.477       .  S
C444        C601   1.494       .  S
C445        C616   1.472       .  S
C446        C625   1.471       .  S
O447       C1321   1.276       .  A
O447       Cu455   2.000   1_554  S
O448       C1322   1.280       .  A
O449       C1323   1.281       .  A
O450       C1324   1.277       .  A
O450       Cu671   2.008       .  S
O451        C460   1.278       .  A
O451       Cu672   2.011       .  S
O452        C459   1.277   1_455  A
O453        C458   1.277   1_455  A
O454        C457   1.279       .  A
O454       Cu456   2.001       .  S
Cu455       O666   2.008       .  S
Cu455     Cu1320   2.364   1_556  S
Cu456       O667   2.011   1_554  S
Cu456     Cu3047   2.364   1_454  S
C457       O3039   1.276   1_455  A
C457        C589   1.484       .  S
C458       O3040   1.280       .  A
C458        C556   1.499       .  S
C459       O3041   1.281       .  A
C459        C568   1.488       .  S
C460       O3042   1.277   1_455  A
C460        C577   1.484       .  S
C461        C463   1.549       .  S
C461        C465   1.555       .  S
C461        C464   1.552       .  S
C461        C531   1.557       .  S
C462        C466   1.524       .  S
C462        C468   1.532       .  S
C462        C467   1.553       .  S
C462        C530   1.552       .  S
C463        C471   1.387       .  A
C463       C1330   1.388       .  A
C464        C475   1.388       .  A
C464       C1331   1.392       .  A
C465        C479   1.393       .  A
C465       C1332   1.393       .  A
C466       C3055   1.388   1_455  A
C466        C469   1.369       .  A
C467       C3056   1.392   1_455  A
C467        C473   1.391       .  A
C468       C3057   1.393   1_455  A
C468        C476   1.371       .  A
C469        N470   1.349       .  A
C469        H482   1.081       .  S
N470       C3063   1.360   1_455  A
N470        C592   1.436       .  S
C471       N1334   1.360       .  A
C471        H472   1.082       .  S
C473        N474   1.368       .  A
C473        H483   1.082       .  S
N474       C3067   1.363   1_455  A
N474        N497   1.427       .  S
C475       N1338   1.363       .  A
C475        H481   1.081       .  S
C476        N477   1.346       .  A
C476        H478   1.081       .  S
N477       C3071   1.364   1_455  A
N477        C580   1.438       .  S
C479       N1341   1.364       .  A
C479        H480   1.081       .  S
C484        C486   1.550       .  S
C484        C488   1.544       .  S
C484        C487   1.555       .  S
C484        C507   1.557       .  S
C485        C489   1.537       .  S
C485        C491   1.541       .  S
C485        C490   1.549       .  S
C485        C508   1.554       .  S
C486        C494   1.389       .  A
C486       C3081   1.390   1_455  A
C487        C498   1.389       .  A
C487       C3082   1.392   1_455  A
C488        C502   1.384       .  A
C488       C3083   1.388   1_455  A
C489       C1350   1.390       .  A
C489        C492   1.376       .  A
C490       C1351   1.392       .  A
C490        C496   1.391       .  A
C491       C1352   1.388       .  A
C491        C499   1.379       .  A
C492       N1357   1.351       .  A
C492        H505   1.078       .  S
N493       C3084   1.351       .  A
N493        C494   1.362   1_655  A
N493        C565   1.442       .  S
C494        H495   1.082       .  S
C496       N1361   1.368       .  A
C496        H506   1.082       .  S
N497       C3088   1.368   1_455  A
N497        C498   1.363       .  A
C498        H504   1.080       .  S
C499       N1364   1.359       .  A
C499        H501   1.080       .  S
N500       C3091   1.359       .  A
N500        C502   1.362   1_655  A
N500        C553   1.451       .  S
C502        H503   1.082       .  S
C507        C509   1.535       .  S
C507        C511   1.541       .  S
C507        C510   1.550       .  S
C508        C512   1.538       .  S
C508        C514   1.539       .  S
C508        C513   1.548       .  S
C509        C517   1.370       .  A
C509        C512   1.392       .  A
C510        C521   1.389       .  A
C510        C513   1.393       .  A
C511        C525   1.375       .  A
C511        C514   1.382       .  A
C512        C515   1.382       .  A
C513        C519   1.384       .  A
C514        C522   1.375       .  A
C515        N516   1.357       .  A
C515        H528   1.082       .  S
N516        C517   1.350       .  A
N516        C613   1.431       .  S
C517        H518   1.078       .  S
C519        N520   1.358       .  A
C519        H529   1.081       .  S
N520        C521   1.369       .  A
C521        H527   1.081       .  S
C522        N523   1.367       .  A
C522        H524   1.071       .  S
N523        C525   1.366       .  A
N523        C604   1.466       .  S
C525        H526   1.076       .  S
C530        C532   1.531       .  S
C530        C534   1.534       .  S
C530        C533   1.546       .  S
C531        C535   1.536       .  S
C531        C537   1.547       .  S
C531        C536   1.553       .  S
C532        C540   1.372       .  A
C532        C535   1.388       .  A
C533        C544   1.383       .  A
C533        C536   1.392       .  A
C534        C548   1.379       .  A
C534        C537   1.394       .  A
C535        C538   1.376       .  A
C536        C542   1.391       .  A
C537        C545   1.379       .  A
C538        N539   1.355       .  A
C538        H551   1.078       .  S
N539        C540   1.354       .  A
N539        C628   1.435       .  S
C540        H541   1.081       .  S
C542        N543   1.370       .  A
C542        H552   1.081       .  S
N543        C544   1.358       .  A
C544        H550   1.081       .  S
C545        N546   1.355       .  A
C545        H547   1.081       .  S
N546        C548   1.354       .  A
N546        C640   1.436       .  S
C548        H549   1.082       .  S
C553        C554   1.406   1_655  A
C553       C3150   1.413       .  A
C554        C555   1.404       .  A
C554        H559   1.082       .  S
C555        C556   1.417   1_455  A
C555        C562   1.443       .  S
C556       C3149   1.410       .  A
C557       C1420   1.410       .  A
C557        C558   1.406       .  A
C557        H560   1.084       .  S
C558       C1417   1.413       .  A
C558        C561   1.444       .  S
C561        N563   1.158       .  T
C562        N564   1.157       .  T
C565       C3158   1.400       .  A
C565        C570   1.409   1_655  A
C566       C1429   1.400       .  A
C566        C567   1.405       .  A
C566        H571   1.085       .  S
C567       C1432   1.419       .  A
C567        C574   1.444   1_565  S
C568       C3159   1.419       .  A
C568        C569   1.404   1_655  A
C569        C570   1.404       .  A
C569        H572   1.085       .  S
C570        C573   1.438       .  S
C573        N575   1.156       .  T
C577        C578   1.404       .  A
C577       C3174   1.417       .  A
C578        C579   1.405       .  A
C578        H583   1.084       .  S
C579        C580   1.411       .  A
C579        C586   1.442   1_455  S
C580       C3173   1.399       .  A
C581       C1444   1.399       .  A
C581        C582   1.399       .  A
C581        H584   1.085       .  S
C582       C1441   1.417       .  A
C582        C585   1.442       .  S
C586        N588   1.157       .  T
C589        C590   1.406       .  A
C589       C3186   1.411   1_455  A
C590        C591   1.396       .  A
C590        H595   1.085       .  S
C591        C592   1.408       .  A
C591        C598   1.443       .  S
C592       C3185   1.406   1_455  A
C593       C1456   1.406       .  A
C593        C594   1.404       .  A
C593        H596   1.084       .  S
C594       C1453   1.411       .  A
C594        C597   1.441       .  S
C597        N599   1.156       .  T
C598        N600   1.157       .  T
C601        C602   1.405       .  A
C601        C606   1.410       .  A
C602        C603   1.399       .  A
C602        H607   1.085       .  S
C603        C604   1.426       .  A
C603        C610   1.440       .  S
C604        C605   1.417       .  A
C605        C606   1.402       .  A
C605        H608   1.078       .  S
C606        C609   1.445       .  S
C609        N611   1.157       .  T
C610        N612   1.157       .  T
C613        C614   1.395       .  A
C613        C618   1.411       .  A
C614        C615   1.395       .  A
C614        H619   1.085       .  S
C615        C616   1.418       .  A
C615        C622   1.445       .  S
C616        C617   1.398       .  A
C617        C618   1.400       .  A
C617        H620   1.085       .  S
C618        C621   1.437       .  S
C621        N623   1.155       .  T
C622        N624   1.157       .  T
C625        C626   1.405       .  A
C625        C630   1.402       .  A
C626        C627   1.396       .  A
C626        H631   1.081       .  S
C627        C628   1.405       .  A
C627        C634   1.444       .  S
C628        C629   1.407       .  A
C629        C630   1.402       .  A
C629        H632   1.083       .  S
C630        C633   1.438       .  S
C633        N635   1.156       .  T
C634        N636   1.158       .  T
C637        C638   1.406       .  A
C637        C642   1.402       .  A
C638        C639   1.396       .  A
C638        H643   1.085       .  S
C639        C640   1.404       .  A
C639        C646   1.443       .  S
C640        C641   1.410       .  A
C641        C642   1.406       .  A
C641        H644   1.084       .  S
C642        C645   1.437       .  S
C645        N647   1.155       .  T
C646        N648   1.157       .  T
O649        C659   1.272       .  A
O650        C660   1.274       .  A
O650       Cu657   1.971       .  S
O651        C661   1.279       .  A
O652        C662   1.281       .  A
O652       Cu657   2.024       .  S
O653        C662   1.273       .  A
O654        C661   1.274       .  A
O654       Cu658   1.987       .  S
O655        C660   1.282       .  A
O656        C659   1.282       .  A
O656       Cu658   2.031       .  S
C659        C853   1.477       .  S
C660        C817   1.494       .  S
C661        C832   1.472       .  S
C662        C841   1.471       .  S
O663       C1537   1.276       .  A
O663       Cu671   2.000       .  S
O664       C1538   1.280       .  A
O665       C1539   1.281       .  A
O666       C1540   1.277       .  A
O667        C676   1.278       .  A
O668        C675   1.277   1_455  A
O669        C674   1.277   1_455  A
O670        C673   1.279       .  A
O670       Cu672   2.001       .  S
Cu671     Cu1536   2.364       .  S
Cu672     Cu3263   2.364   1_455  S
C673       O3255   1.276   1_455  A
C673        C805   1.484       .  S
C674       O3256   1.280       .  A
C674        C772   1.499       .  S
C675       O3257   1.281       .  A
C675        C784   1.488       .  S
C676       O3258   1.277   1_455  A
C676        C793   1.484       .  S
C677        C679   1.549       .  S
C677        C681   1.555       .  S
C677        C680   1.552       .  S
C677        C747   1.557       .  S
C678        C682   1.524       .  S
C678        C684   1.532       .  S
C678        C683   1.553       .  S
C678        C746   1.552       .  S
C679        C687   1.387       .  A
C679       C1546   1.388       .  A
C680        C691   1.388       .  A
C680       C1547   1.392       .  A
C681        C695   1.393       .  A
C681       C1548   1.393       .  A
C682       C3271   1.388   1_455  A
C682        C685   1.369       .  A
C683       C3272   1.392   1_455  A
C683        C689   1.391       .  A
C684       C3273   1.393   1_455  A
C684        C692   1.371       .  A
C685        N686   1.349       .  A
C685        H698   1.081       .  S
N686       C3279   1.360   1_455  A
N686        C808   1.436       .  S
C687       N1550   1.360       .  A
C687        H688   1.082       .  S
C689        N690   1.368       .  A
C689        H699   1.082       .  S
N690       C3283   1.363   1_455  A
N690        N713   1.427       .  S
C691       N1554   1.363       .  A
C691        H697   1.081       .  S
C692        N693   1.346       .  A
C692        H694   1.081       .  S
N693       C3287   1.364   1_455  A
N693        C796   1.438       .  S
C695       N1557   1.364       .  A
C695        H696   1.081       .  S
C700        C702   1.550       .  S
C700        C704   1.544       .  S
C700        C703   1.555       .  S
C700        C723   1.557       .  S
C701        C705   1.537       .  S
C701        C707   1.541       .  S
C701        C706   1.549       .  S
C701        C724   1.554       .  S
C702        C710   1.389       .  A
C702       C3297   1.390   1_455  A
C703        C714   1.389       .  A
C703       C3298   1.392   1_455  A
C704        C718   1.384       .  A
C704       C3299   1.388   1_455  A
C705       C1566   1.390       .  A
C705        C708   1.376       .  A
C706       C1567   1.392       .  A
C706        C712   1.391       .  A
C707       C1568   1.388       .  A
C707        C715   1.379       .  A
C708       N1573   1.351       .  A
C708        H721   1.078       .  S
N709       C3300   1.351       .  A
N709        C710   1.362   1_655  A
N709        C781   1.442       .  S
C710        H711   1.082       .  S
C712       N1577   1.368       .  A
C712        H722   1.082       .  S
N713       C3304   1.368   1_455  A
N713        C714   1.363       .  A
C714        H720   1.080       .  S
C715       N1580   1.359       .  A
C715        H717   1.080       .  S
N716       C3307   1.359       .  A
N716        C718   1.362   1_655  A
N716        C769   1.451       .  S
C718        H719   1.082       .  S
C723        C725   1.535       .  S
C723        C727   1.541       .  S
C723        C726   1.550       .  S
C724        C728   1.538       .  S
C724        C730   1.539       .  S
C724        C729   1.548       .  S
C725        C733   1.370       .  A
C725        C728   1.392       .  A
C726        C737   1.389       .  A
C726        C729   1.393       .  A
C727        C741   1.375       .  A
C727        C730   1.382       .  A
C728        C731   1.382       .  A
C729        C735   1.384       .  A
C730        C738   1.375       .  A
C731        N732   1.357       .  A
C731        H744   1.082       .  S
N732        C733   1.350       .  A
N732        C829   1.431       .  S
C733        H734   1.078       .  S
C735        N736   1.358       .  A
C735        H745   1.081       .  S
N736        C737   1.369       .  A
C737        H743   1.081       .  S
C738        N739   1.367       .  A
C738        H740   1.071       .  S
N739        C741   1.366       .  A
N739        C820   1.466       .  S
C741        H742   1.076       .  S
C746        C748   1.531       .  S
C746        C750   1.534       .  S
C746        C749   1.546       .  S
C747        C751   1.536       .  S
C747        C753   1.547       .  S
C747        C752   1.553       .  S
C748        C756   1.372       .  A
C748        C751   1.388       .  A
C749        C760   1.383       .  A
C749        C752   1.392       .  A
C750        C764   1.379       .  A
C750        C753   1.394       .  A
C751        C754   1.376       .  A
C752        C758   1.391       .  A
C753        C761   1.379       .  A
C754        N755   1.355       .  A
C754        H767   1.078       .  S
N755        C756   1.354       .  A
N755        C844   1.435       .  S
C756        H757   1.081       .  S
C758        N759   1.370       .  A
C758        H768   1.081       .  S
N759        C760   1.358       .  A
C760        H766   1.081       .  S
C761        N762   1.355       .  A
C761        H763   1.081       .  S
N762        C764   1.354       .  A
N762        C856   1.436       .  S
C764        H765   1.082       .  S
C769        C770   1.406   1_655  A
C769       C3366   1.413       .  A
C770        C771   1.404       .  A
C770        H775   1.082       .  S
C771        C772   1.417   1_455  A
C771        C778   1.443       .  S
C772       C3365   1.410       .  A
C773       C1636   1.410       .  A
C773        C774   1.406       .  A
C773        H776   1.084       .  S
C774       C1633   1.413       .  A
C774        C777   1.444       .  S
C777        N779   1.158       .  T
C778        N780   1.157       .  T
C781       C3374   1.400       .  A
C781        C786   1.409   1_655  A
C782       C1645   1.400       .  A
C782        C783   1.405       .  A
C782        H787   1.085       .  S
C783       C1648   1.419       .  A
C783        C790   1.444   1_565  S
C784       C3375   1.419       .  A
C784        C785   1.404   1_655  A
C785        C786   1.404       .  A
C785        H788   1.085       .  S
C786        C789   1.438       .  S
C789        N791   1.156       .  T
C793        C794   1.404       .  A
C793       C3390   1.417       .  A
C794        C795   1.405       .  A
C794        H799   1.084       .  S
C795        C796   1.411       .  A
C795        C802   1.442   1_455  S
C796       C3389   1.399       .  A
C797       C1660   1.399       .  A
C797        C798   1.399       .  A
C797        H800   1.085       .  S
C798       C1657   1.417       .  A
C798        C801   1.442       .  S
C802        N804   1.157       .  T
C805        C806   1.406       .  A
C805       C3402   1.411   1_455  A
C806        C807   1.396       .  A
C806        H811   1.085       .  S
C807        C808   1.408       .  A
C807        C814   1.443       .  S
C808       C3401   1.406   1_455  A
C809       C1672   1.406       .  A
C809        C810   1.404       .  A
C809        H812   1.084       .  S
C810       C1669   1.411       .  A
C810        C813   1.441       .  S
C813        N815   1.156       .  T
C814        N816   1.157       .  T
C817        C818   1.405       .  A
C817        C822   1.410       .  A
C818        C819   1.399       .  A
C818        H823   1.085       .  S
C819        C820   1.426       .  A
C819        C826   1.440       .  S
C820        C821   1.417       .  A
C821        C822   1.402       .  A
C821        H824   1.078       .  S
C822        C825   1.445       .  S
C825        N827   1.157       .  T
C826        N828   1.157       .  T
C829        C830   1.395       .  A
C829        C834   1.411       .  A
C830        C831   1.395       .  A
C830        H835   1.085       .  S
C831        C832   1.418       .  A
C831        C838   1.445       .  S
C832        C833   1.398       .  A
C833        C834   1.400       .  A
C833        H836   1.085       .  S
C834        C837   1.437       .  S
C837        N839   1.155       .  T
C838        N840   1.157       .  T
C841        C842   1.405       .  A
C841        C846   1.402       .  A
C842        C843   1.396       .  A
C842        H847   1.081       .  S
C843        C844   1.405       .  A
C843        C850   1.444       .  S
C844        C845   1.407       .  A
C845        C846   1.402       .  A
C845        H848   1.083       .  S
C846        C849   1.438       .  S
C849        N851   1.156       .  T
C850        N852   1.158       .  T
C853        C854   1.406       .  A
C853        C858   1.402       .  A
C854        C855   1.396       .  A
C854        H859   1.085       .  S
C855        C856   1.404       .  A
C855        C862   1.443       .  S
C856        C857   1.410       .  A
C857        C858   1.406       .  A
C857        H860   1.084       .  S
C858        C861   1.437       .  S
C861        N863   1.155       .  T
C862        N864   1.157       .  T
O865        C875   1.272       .  A
O865      Cu1089   1.974   1_554  S
O866        C876   1.274       .  A
O866       Cu873   1.971       .  S
O867        C877   1.279       .  A
O867      Cu1089   2.014   1_554  S
O868        C878   1.281       .  A
O868       Cu873   2.024       .  S
O869        C878   1.273       .  A
O869      Cu1090   1.981       .  S
O870        C877   1.274       .  A
O870       Cu874   1.987       .  S
O871        C876   1.282       .  A
O871      Cu1090   2.028       .  S
O872        C875   1.282       .  A
O872       Cu874   2.031       .  S
Cu873      O1081   1.974       .  S
Cu873      O1083   2.014       .  S
Cu873     Cu1090   2.369       .  S
Cu874      O1085   1.981   1_554  S
Cu874      O1087   2.028   1_554  S
Cu874     Cu1089   2.369   1_554  S
C875       C1069   1.477       .  S
C876       C1033   1.493       .  S
C877       C1048   1.472       .  S
C878       C1057   1.471       .  S
O879       C1753   1.276       .  A
O879       Cu887   2.000   1_554  S
O880       C1754   1.280       .  A
O880      Cu1535   2.023       .  S
O881       C1755   1.281       .  A
O881      Cu1319   2.025   1_554  S
O882       C1756   1.277       .  A
O882      Cu1103   2.008       .  S
O883        C892   1.278       .  A
O883      Cu1104   2.011   1_545  S
O884        C891   1.277       .  A
O884      Cu1320   2.004       .  S
O885        C890   1.277       .  A
O885      Cu1536   1.995       .  S
O886        C889   1.279       .  A
O886       Cu888   2.001   1_545  S
Cu887      O1528   2.023   1_545  S
Cu887      O1313   2.025   1_546  S
Cu887      O1098   2.008       .  S
Cu887     Cu1752   2.364   1_546  S
Cu888      O1099   2.011   1_564  S
Cu888      O1316   2.004       .  S
Cu888      O1533   1.995   1_554  S
C889       C1021   1.484       .  S
C890        C988   1.499       .  S
C891       C1000   1.488       .  S
C892       C1009   1.484       .  S
C893        C895   1.549       .  S
C893        C897   1.555       .  S
C893        C896   1.552       .  S
C893        C963   1.557       .  S
C894        C898   1.524       .  S
C894        C900   1.532       .  S
C894        C899   1.553       .  S
C894        C962   1.552       .  S
C895        C903   1.387       .  A
C895       C1762   1.388       .  A
C896        C907   1.388       .  A
C896       C1763   1.392       .  A
C897        C911   1.393       .  A
C897       C1764   1.393       .  A
C898        C901   1.369       .  A
C899        C905   1.391       .  A
C900        C908   1.371       .  A
C901        N902   1.349       .  A
C901        H914   1.081       .  S
N902       C1024   1.436       .  S
C903       N1766   1.360       .  A
C903        H904   1.082       .  S
C905        N906   1.368       .  A
C905        H915   1.082       .  S
N906        N929   1.427       .  S
C907       N1770   1.363       .  A
C907        H913   1.081       .  S
C908        N909   1.346       .  A
C908        H910   1.081       .  S
N909       C1012   1.438       .  S
C911       N1773   1.364       .  A
C911        H912   1.081       .  S
C916        C918   1.550       .  S
C916        C920   1.544       .  S
C916        C919   1.555       .  S
C916        C939   1.557       .  S
C917        C921   1.537       .  S
C917        C923   1.541       .  S
C917        C922   1.549       .  S
C917        C940   1.554       .  S
C918        C926   1.389       .  A
C919        C930   1.389       .  A
C920        C934   1.384       .  A
C921       C1782   1.390       .  A
C921        C924   1.376       .  A
C922       C1783   1.392       .  A
C922        C928   1.391       .  A
C923       C1784   1.388       .  A
C923        C931   1.379       .  A
C924       N1789   1.351       .  A
C924        H937   1.078       .  S
N925        C926   1.362       .  A
N925        C997   1.442       .  S
C926        H927   1.082       .  S
C928       N1793   1.368       .  A
C928        H938   1.082       .  S
N929        C930   1.363       .  A
C930        H936   1.080       .  S
C931       N1796   1.359       .  A
C931        H933   1.080       .  S
N932        C934   1.362       .  A
N932        C985   1.451       .  S
C934        H935   1.082       .  S
C939        C941   1.535       .  S
C939        C943   1.541       .  S
C939        C942   1.550       .  S
C940        C944   1.538       .  S
C940        C946   1.539       .  S
C940        C945   1.548       .  S
C941        C949   1.370       .  A
C941        C944   1.392       .  A
C942        C953   1.389       .  A
C942        C945   1.393       .  A
C943        C957   1.375       .  A
C943        C946   1.382       .  A
C944        C947   1.382       .  A
C945        C951   1.384       .  A
C946        C954   1.375       .  A
C947        N948   1.357       .  A
C947        H960   1.082       .  S
N948        C949   1.350       .  A
N948       C1045   1.431       .  S
C949        H950   1.078       .  S
C951        N952   1.358       .  A
C951        H961   1.081       .  S
N952        C953   1.369       .  A
N952       N1407   1.423       .  S
C953        H959   1.081       .  S
C954        N955   1.367       .  A
C954        H956   1.071       .  S
N955        C957   1.366       .  A
N955       C1036   1.466       .  S
C957        H958   1.076       .  S
C962        C964   1.531       .  S
C962        C966   1.534       .  S
C962        C965   1.546       .  S
C963        C967   1.536       .  S
C963        C969   1.547       .  S
C963        C968   1.553       .  S
C964        C972   1.372       .  A
C964        C967   1.388       .  A
C965        C976   1.383       .  A
C965        C968   1.392       .  A
C966        C980   1.379       .  A
C966        C969   1.394       .  A
C967        C970   1.376       .  A
C968        C974   1.391       .  A
C969        C977   1.379       .  A
C970        N971   1.355       .  A
C970        H983   1.078       .  S
N971        C972   1.354       .  A
N971       C1060   1.435       .  S
C972        H973   1.081       .  S
C974        N975   1.370       .  A
C974        H984   1.081       .  S
N975        C976   1.357       .  A
N975       N1384   1.423   1_545  S
C976        H982   1.081       .  S
C977        N978   1.355       .  A
C977        H979   1.081       .  S
N978        C980   1.354       .  A
N978       C1072   1.436       .  S
C980        H981   1.082       .  S
C985        C986   1.406       .  A
C986        C987   1.404       .  A
C986        H991   1.082       .  S
C987        C988   1.417       .  A
C987        C994   1.443       .  S
C989       C1852   1.410       .  A
C989        C990   1.406       .  A
C989        H992   1.084       .  S
C990       C1849   1.413       .  A
C990        C993   1.444       .  S
C993        N995   1.158       .  T
C994        N996   1.157       .  T
C997       C1002   1.409       .  A
C998       C1861   1.400       .  A
C998        C999   1.405       .  A
C998       H1003   1.085       .  S
C999       C1864   1.419       .  A
C999       C1006   1.444       .  S
C1000      C1001   1.404       .  A
C1001      C1002   1.404       .  A
C1001      H1004   1.085       .  S
C1002      C1005   1.438       .  S
C1005      N1007   1.156       .  T
C1006      N1440   1.157       .  T
N1008      C1438   1.157       .  T
C1009      C1010   1.404       .  A
C1010      C1011   1.405       .  A
C1010      H1015   1.084       .  S
C1011      C1012   1.411       .  A
C1011      C1018   1.442       .  S
C1013      C1876   1.399       .  A
C1013      C1014   1.399       .  A
C1013      H1016   1.085       .  S
C1014      C1873   1.417       .  A
C1014      C1017   1.442       .  S
C1017      N1451   1.157   1_545  T
C1018      N1020   1.157       .  T
N1019      C1449   1.157       .  T
C1021      C1022   1.406       .  A
C1022      C1023   1.396       .  A
C1022      H1027   1.085       .  S
C1023      C1024   1.408       .  A
C1023      C1030   1.443       .  S
C1025      C1888   1.406       .  A
C1025      C1026   1.404       .  A
C1025      H1028   1.084       .  S
C1026      C1885   1.411       .  A
C1026      C1029   1.441       .  S
C1029      N1031   1.156       .  T
C1030      N1032   1.157   1_545  T
C1033      C1034   1.405       .  A
C1033      C1038   1.410       .  A
C1034      C1035   1.399       .  A
C1034      H1039   1.085       .  S
C1035      C1036   1.426       .  A
C1035      C1042   1.440       .  S
C1036      C1037   1.417       .  A
C1037      C1038   1.402       .  A
C1037      H1040   1.078       .  S
C1038      C1041   1.445       .  S
C1041      N1043   1.157       .  T
C1042      N1044   1.157       .  T
C1045      C1046   1.395       .  A
C1045      C1050   1.411       .  A
C1046      C1047   1.395       .  A
C1046      H1051   1.085       .  S
C1047      C1048   1.418       .  A
C1047      C1054   1.445       .  S
C1048      C1049   1.398       .  A
C1049      C1050   1.400       .  A
C1049      H1052   1.085       .  S
C1050      C1053   1.437       .  S
C1053      N1055   1.155       .  T
C1054      N1056   1.157       .  T
C1057      C1058   1.405       .  A
C1057      C1062   1.402       .  A
C1058      C1059   1.396       .  A
C1058      H1063   1.081       .  S
C1059      C1060   1.405       .  A
C1059      C1066   1.444       .  S
C1060      C1061   1.407       .  A
C1061      C1062   1.402       .  A
C1061      H1064   1.083       .  S
C1062      C1065   1.438       .  S
C1065      N1067   1.156       .  T
C1066      N1068   1.158       .  T
C1069      C1070   1.406       .  A
C1069      C1074   1.402       .  A
C1070      C1071   1.396       .  A
C1070      H1075   1.085       .  S
C1071      C1072   1.404       .  A
C1071      C1078   1.443       .  S
C1072      C1073   1.410       .  A
C1073      C1074   1.406       .  A
C1073      H1076   1.084       .  S
C1074      C1077   1.437       .  S
C1077      N1079   1.155       .  T
C1078      N1080   1.157       .  T
O1081      C1091   1.272       .  A
O1082      C1092   1.274       .  A
O1082     Cu1089   1.971       .  S
O1083      C1093   1.279       .  A
O1084      C1094   1.281       .  A
O1084     Cu1089   2.024       .  S
O1085      C1094   1.273       .  A
O1086      C1093   1.274       .  A
O1086     Cu1090   1.987       .  S
O1087      C1092   1.282       .  A
O1088      C1091   1.282       .  A
O1088     Cu1090   2.031       .  S
C1091      C1285   1.477       .  S
C1092      C1249   1.493       .  S
C1093      C1264   1.472       .  S
C1094      C1273   1.471       .  S
O1095      C1969   1.276       .  A
O1095     Cu1103   2.000       .  S
O1096      C1970   1.280       .  A
O1096     Cu1319   2.023       .  S
O1097      C1971   1.281       .  A
O1097     Cu1535   2.025       .  S
O1098      C1972   1.277       .  A
O1099      C1108   1.278       .  A
O1100      C1107   1.277       .  A
O1100     Cu1536   2.004       .  S
O1101      C1106   1.277       .  A
O1101     Cu1320   1.995   1_556  S
O1102      C1105   1.279       .  A
O1102     Cu1104   2.001   1_545  S
Cu1103     O1312   2.023   1_545  S
Cu1103     O1529   2.025   1_545  S
Cu1103    Cu1968   2.364   1_545  S
Cu1104     O1532   2.004       .  S
Cu1104     O1317   1.995       .  S
C1105      C1237   1.484       .  S
C1106      C1204   1.499       .  S
C1107      C1216   1.488       .  S
C1108      C1225   1.484       .  S
C1109      C1111   1.549       .  S
C1109      C1113   1.555       .  S
C1109      C1112   1.552       .  S
C1109      C1179   1.557       .  S
C1110      C1114   1.524       .  S
C1110      C1116   1.532       .  S
C1110      C1115   1.553       .  S
C1110      C1178   1.552       .  S
C1111      C1119   1.387       .  A
C1111      C1978   1.388       .  A
C1112      C1123   1.388       .  A
C1112      C1979   1.392       .  A
C1113      C1127   1.393       .  A
C1113      C1980   1.393       .  A
C1114      C1117   1.369       .  A
C1115      C1121   1.391       .  A
C1116      C1124   1.371       .  A
C1117      N1118   1.349       .  A
C1117      H1130   1.081       .  S
N1118      C1240   1.436       .  S
C1119      N1982   1.360       .  A
C1119      H1120   1.082       .  S
C1121      N1122   1.368       .  A
C1121      H1131   1.082       .  S
N1122      N1145   1.427       .  S
C1123      N1986   1.363       .  A
C1123      H1129   1.081       .  S
C1124      N1125   1.346       .  A
C1124      H1126   1.081       .  S
N1125      C1228   1.438       .  S
C1127      N1989   1.364       .  A
C1127      H1128   1.081       .  S
C1132      C1134   1.550       .  S
C1132      C1136   1.544       .  S
C1132      C1135   1.555       .  S
C1132      C1155   1.557       .  S
C1133      C1137   1.537       .  S
C1133      C1139   1.541       .  S
C1133      C1138   1.549       .  S
C1133      C1156   1.554       .  S
C1134      C1142   1.389       .  A
C1135      C1146   1.389       .  A
C1136      C1150   1.384       .  A
C1137      C1998   1.390       .  A
C1137      C1140   1.376       .  A
C1138      C1999   1.392       .  A
C1138      C1144   1.391       .  A
C1139      C2000   1.388       .  A
C1139      C1147   1.379       .  A
C1140      N2005   1.351       .  A
C1140      H1153   1.078       .  S
N1141      C1142   1.362       .  A
N1141      C1213   1.442       .  S
C1142      H1143   1.082       .  S
C1144      N2009   1.368       .  A
C1144      H1154   1.082       .  S
N1145      C1146   1.363       .  A
C1146      H1152   1.080       .  S
C1147      N2012   1.359       .  A
C1147      H1149   1.080       .  S
N1148      C1150   1.362       .  A
N1148      C1201   1.451       .  S
C1150      H1151   1.082       .  S
C1155      C1157   1.535       .  S
C1155      C1159   1.541       .  S
C1155      C1158   1.550       .  S
C1156      C1160   1.538       .  S
C1156      C1162   1.539       .  S
C1156      C1161   1.548       .  S
C1157      C1165   1.370       .  A
C1157      C1160   1.392       .  A
C1158      C1169   1.389       .  A
C1158      C1161   1.393       .  A
C1159      C1173   1.375       .  A
C1159      C1162   1.382       .  A
C1160      C1163   1.382       .  A
C1161      C1167   1.384       .  A
C1162      C1170   1.375       .  A
C1163      N1164   1.357       .  A
C1163      H1176   1.082       .  S
N1164      C1165   1.350       .  A
N1164      C1261   1.431       .  S
C1165      H1166   1.078       .  S
C1167      N1168   1.358       .  A
C1167      H1177   1.081       .  S
N1168      C1169   1.369       .  A
N1168      N1623   1.423       .  S
C1169      H1175   1.081       .  S
C1170      N1171   1.367       .  A
C1170      H1172   1.071       .  S
N1171      C1173   1.366       .  A
N1171      C1252   1.466       .  S
C1173      H1174   1.076       .  S
C1178      C1180   1.531       .  S
C1178      C1182   1.534       .  S
C1178      C1181   1.546       .  S
C1179      C1183   1.536       .  S
C1179      C1185   1.547       .  S
C1179      C1184   1.553       .  S
C1180      C1188   1.372       .  A
C1180      C1183   1.388       .  A
C1181      C1192   1.383       .  A
C1181      C1184   1.392       .  A
C1182      C1196   1.379       .  A
C1182      C1185   1.394       .  A
C1183      C1186   1.376       .  A
C1184      C1190   1.391       .  A
C1185      C1193   1.379       .  A
C1186      N1187   1.355       .  A
C1186      H1199   1.078       .  S
N1187      C1188   1.354       .  A
N1187      C1276   1.435       .  S
C1188      H1189   1.081       .  S
C1190      N1191   1.370       .  A
C1190      H1200   1.081       .  S
N1191      C1192   1.357       .  A
N1191      N1600   1.423   1_545  S
C1192      H1198   1.081       .  S
C1193      N1194   1.355       .  A
C1193      H1195   1.081       .  S
N1194      C1196   1.354       .  A
N1194      C1288   1.436       .  S
C1196      H1197   1.082       .  S
C1201      C1202   1.406       .  A
C1202      C1203   1.404       .  A
C1202      H1207   1.082       .  S
C1203      C1204   1.417       .  A
C1203      C1210   1.443       .  S
C1205      C2068   1.410       .  A
C1205      C1206   1.406       .  A
C1205      H1208   1.084       .  S
C1206      C2065   1.413       .  A
C1206      C1209   1.444       .  S
C1209      N1211   1.158       .  T
C1210      N1212   1.157       .  T
C1213      C1218   1.409       .  A
C1214      C2077   1.400       .  A
C1214      C1215   1.405       .  A
C1214      H1219   1.085       .  S
C1215      C2080   1.419       .  A
C1215      C1222   1.444       .  S
C1216      C1217   1.404       .  A
C1217      C1218   1.404       .  A
C1217      H1220   1.085       .  S
C1218      C1221   1.438       .  S
C1221      N1223   1.156       .  T
C1222      N1656   1.157       .  T
N1224      C1654   1.157       .  T
C1225      C1226   1.404       .  A
C1226      C1227   1.405       .  A
C1226      H1231   1.084       .  S
C1227      C1228   1.411       .  A
C1227      C1234   1.442       .  S
C1229      C2092   1.399       .  A
C1229      C1230   1.399       .  A
C1229      H1232   1.085       .  S
C1230      C2089   1.417       .  A
C1230      C1233   1.442       .  S
C1233      N1667   1.157   1_545  T
C1234      N1236   1.157       .  T
N1235      C1665   1.157       .  T
C1237      C1238   1.406       .  A
C1238      C1239   1.396       .  A
C1238      H1243   1.085       .  S
C1239      C1240   1.408       .  A
C1239      C1246   1.443       .  S
C1241      C2104   1.406       .  A
C1241      C1242   1.404       .  A
C1241      H1244   1.084       .  S
C1242      C2101   1.411       .  A
C1242      C1245   1.441       .  S
C1245      N1247   1.156       .  T
C1246      N1248   1.157   1_545  T
C1249      C1250   1.405       .  A
C1249      C1254   1.410       .  A
C1250      C1251   1.399       .  A
C1250      H1255   1.085       .  S
C1251      C1252   1.426       .  A
C1251      C1258   1.440       .  S
C1252      C1253   1.417       .  A
C1253      C1254   1.402       .  A
C1253      H1256   1.078       .  S
C1254      C1257   1.445       .  S
C1257      N1259   1.157       .  T
C1258      N1260   1.157       .  T
C1261      C1262   1.395       .  A
C1261      C1266   1.411       .  A
C1262      C1263   1.395       .  A
C1262      H1267   1.085       .  S
C1263      C1264   1.418       .  A
C1263      C1270   1.445       .  S
C1264      C1265   1.398       .  A
C1265      C1266   1.400       .  A
C1265      H1268   1.085       .  S
C1266      C1269   1.437       .  S
C1269      N1271   1.155       .  T
C1270      N1272   1.157       .  T
C1273      C1274   1.405       .  A
C1273      C1278   1.402       .  A
C1274      C1275   1.396       .  A
C1274      H1279   1.081       .  S
C1275      C1276   1.405       .  A
C1275      C1282   1.444       .  S
C1276      C1277   1.407       .  A
C1277      C1278   1.402       .  A
C1277      H1280   1.083       .  S
C1278      C1281   1.438       .  S
C1281      N1283   1.156       .  T
C1282      N1284   1.158       .  T
C1285      C1286   1.406       .  A
C1285      C1290   1.402       .  A
C1286      C1287   1.396       .  A
C1286      H1291   1.085       .  S
C1287      C1288   1.404       .  A
C1287      C1294   1.443       .  S
C1288      C1289   1.410       .  A
C1289      C1290   1.406       .  A
C1289      H1292   1.084       .  S
C1290      C1293   1.437       .  S
C1293      N1295   1.155       .  T
C1294      N1296   1.157       .  T
O1297      C1307   1.272       .  A
O1297     Cu1521   1.974   1_554  S
O1298      C1308   1.274       .  A
O1298     Cu1305   1.971       .  S
O1299      C1309   1.279       .  A
O1299     Cu1521   2.014   1_554  S
O1300      C1310   1.281       .  A
O1300     Cu1305   2.024       .  S
O1301      C1310   1.273       .  A
O1301     Cu1522   1.981       .  S
O1302      C1309   1.274       .  A
O1302     Cu1306   1.987       .  S
O1303      C1308   1.282       .  A
O1303     Cu1522   2.028       .  S
O1304      C1307   1.282       .  A
O1304     Cu1306   2.031       .  S
Cu1305     O1513   1.974       .  S
Cu1305     O1515   2.014       .  S
Cu1305    Cu1522   2.369       .  S
Cu1306     O1517   1.981   1_554  S
Cu1306     O1519   2.028   1_554  S
Cu1306    Cu1521   2.369   1_554  S
C1307      C1501   1.477       .  S
C1308      C1465   1.494       .  S
C1309      C1480   1.472       .  S
C1310      C1489   1.471       .  S
O1311      C2185   1.276       .  A
O1311     Cu1319   2.000   1_554  S
O1312      C2186   1.280       .  A
O1313      C2187   1.281       .  A
O1314      C2188   1.277       .  A
O1314     Cu1535   2.008       .  S
O1315      C1324   1.278       .  A
O1315     Cu1536   2.011       .  S
O1316      C1323   1.277       .  A
O1317      C1322   1.277       .  A
O1318      C1321   1.279       .  A
O1318     Cu1320   2.001       .  S
Cu1319     O1530   2.008       .  S
Cu1319    Cu2184   2.364   1_556  S
Cu1320     O1531   2.011   1_554  S
C1321      C1453   1.484       .  S
C1322      C1420   1.499       .  S
C1323      C1432   1.488       .  S
C1324      C1441   1.484       .  S
C1325      C1327   1.549       .  S
C1325      C1329   1.555       .  S
C1325      C1328   1.552       .  S
C1325      C1395   1.557       .  S
C1326      C1330   1.524       .  S
C1326      C1332   1.532       .  S
C1326      C1331   1.553       .  S
C1326      C1394   1.552       .  S
C1327      C1335   1.387       .  A
C1327      C2194   1.388       .  A
C1328      C1339   1.388       .  A
C1328      C2195   1.392       .  A
C1329      C1343   1.393       .  A
C1329      C2196   1.393       .  A
C1330      C1333   1.369       .  A
C1331      C1337   1.391       .  A
C1332      C1340   1.371       .  A
C1333      N1334   1.349       .  A
C1333      H1346   1.081       .  S
N1334      C1456   1.436       .  S
C1335      N2198   1.360       .  A
C1335      H1336   1.082       .  S
C1337      N1338   1.368       .  A
C1337      H1347   1.082       .  S
N1338      N1361   1.427       .  S
C1339      N2202   1.363       .  A
C1339      H1345   1.081       .  S
C1340      N1341   1.346       .  A
C1340      H1342   1.081       .  S
N1341      C1444   1.438       .  S
C1343      N2205   1.364       .  A
C1343      H1344   1.081       .  S
C1348      C1350   1.550       .  S
C1348      C1352   1.544       .  S
C1348      C1351   1.555       .  S
C1348      C1371   1.557       .  S
C1349      C1353   1.537       .  S
C1349      C1355   1.541       .  S
C1349      C1354   1.549       .  S
C1349      C1372   1.554       .  S
C1350      C1358   1.389       .  A
C1351      C1362   1.389       .  A
C1352      C1366   1.384       .  A
C1353      C2214   1.390       .  A
C1353      C1356   1.376       .  A
C1354      C2215   1.392       .  A
C1354      C1360   1.391       .  A
C1355      C2216   1.388       .  A
C1355      C1363   1.379       .  A
C1356      N2221   1.351       .  A
C1356      H1369   1.078       .  S
N1357      C1358   1.362       .  A
N1357      C1429   1.442       .  S
C1358      H1359   1.082       .  S
C1360      N2225   1.368       .  A
C1360      H1370   1.082       .  S
N1361      C1362   1.363       .  A
C1362      H1368   1.080       .  S
C1363      N2228   1.359       .  A
C1363      H1365   1.080       .  S
N1364      C1366   1.362       .  A
N1364      C1417   1.451       .  S
C1366      H1367   1.082       .  S
C1371      C1373   1.535       .  S
C1371      C1375   1.541       .  S
C1371      C1374   1.550       .  S
C1372      C1376   1.538       .  S
C1372      C1378   1.539       .  S
C1372      C1377   1.548       .  S
C1373      C1381   1.370       .  A
C1373      C1376   1.392       .  A
C1374      C1385   1.389       .  A
C1374      C1377   1.393       .  A
C1375      C1389   1.375       .  A
C1375      C1378   1.382       .  A
C1376      C1379   1.382       .  A
C1377      C1383   1.384       .  A
C1378      C1386   1.375       .  A
C1379      N1380   1.357       .  A
C1379      H1392   1.082       .  S
N1380      C1381   1.350       .  A
N1380      C1477   1.431       .  S
C1381      H1382   1.078       .  S
C1383      N1384   1.358       .  A
C1383      H1393   1.081       .  S
N1384      C1385   1.369       .  A
C1385      H1391   1.081       .  S
C1386      N1387   1.367       .  A
C1386      H1388   1.071       .  S
N1387      C1389   1.366       .  A
N1387      C1468   1.466       .  S
C1389      H1390   1.076       .  S
C1394      C1396   1.531       .  S
C1394      C1398   1.534       .  S
C1394      C1397   1.546       .  S
C1395      C1399   1.536       .  S
C1395      C1401   1.547       .  S
C1395      C1400   1.553       .  S
C1396      C1404   1.372       .  A
C1396      C1399   1.388       .  A
C1397      C1408   1.383       .  A
C1397      C1400   1.392       .  A
C1398      C1412   1.379       .  A
C1398      C1401   1.394       .  A
C1399      C1402   1.376       .  A
C1400      C1406   1.391       .  A
C1401      C1409   1.379       .  A
C1402      N1403   1.355       .  A
C1402      H1415   1.078       .  S
N1403      C1404   1.354       .  A
N1403      C1492   1.435       .  S
C1404      H1405   1.081       .  S
C1406      N1407   1.370       .  A
C1406      H1416   1.081       .  S
N1407      C1408   1.358       .  A
C1408      H1414   1.081       .  S
C1409      N1410   1.355       .  A
C1409      H1411   1.081       .  S
N1410      C1412   1.354       .  A
N1410      C1504   1.436       .  S
C1412      H1413   1.082       .  S
C1417      C1418   1.406       .  A
C1418      C1419   1.404       .  A
C1418      H1423   1.082       .  S
C1419      C1420   1.417       .  A
C1419      C1426   1.443       .  S
C1421      C2284   1.410       .  A
C1421      C1422   1.406       .  A
C1421      H1424   1.084       .  S
C1422      C2281   1.413       .  A
C1422      C1425   1.444       .  S
C1425      N1427   1.158       .  T
C1426      N1428   1.157       .  T
C1429      C1434   1.409       .  A
C1430      C2293   1.400       .  A
C1430      C1431   1.405       .  A
C1430      H1435   1.085       .  S
C1431      C2296   1.419       .  A
C1431      C1438   1.444   1_565  S
C1432      C1433   1.404       .  A
C1433      C1434   1.404       .  A
C1433      H1436   1.085       .  S
C1434      C1437   1.438       .  S
C1437      N1439   1.156       .  T
C1441      C1442   1.404       .  A
C1442      C1443   1.405       .  A
C1442      H1447   1.084       .  S
C1443      C1444   1.411       .  A
C1443      C1450   1.442       .  S
C1445      C2308   1.399       .  A
C1445      C1446   1.399       .  A
C1445      H1448   1.085       .  S
C1446      C2305   1.417       .  A
C1446      C1449   1.442       .  S
C1450      N1452   1.157       .  T
C1453      C1454   1.406       .  A
C1454      C1455   1.396       .  A
C1454      H1459   1.085       .  S
C1455      C1456   1.408       .  A
C1455      C1462   1.443       .  S
C1457      C2320   1.406       .  A
C1457      C1458   1.404       .  A
C1457      H1460   1.084       .  S
C1458      C2317   1.411       .  A
C1458      C1461   1.441       .  S
C1461      N1463   1.156       .  T
C1462      N1464   1.157       .  T
C1465      C1466   1.405       .  A
C1465      C1470   1.410       .  A
C1466      C1467   1.399       .  A
C1466      H1471   1.085       .  S
C1467      C1468   1.426       .  A
C1467      C1474   1.440       .  S
C1468      C1469   1.417       .  A
C1469      C1470   1.402       .  A
C1469      H1472   1.078       .  S
C1470      C1473   1.445       .  S
C1473      N1475   1.157       .  T
C1474      N1476   1.157       .  T
C1477      C1478   1.395       .  A
C1477      C1482   1.411       .  A
C1478      C1479   1.395       .  A
C1478      H1483   1.085       .  S
C1479      C1480   1.418       .  A
C1479      C1486   1.445       .  S
C1480      C1481   1.398       .  A
C1481      C1482   1.400       .  A
C1481      H1484   1.085       .  S
C1482      C1485   1.437       .  S
C1485      N1487   1.155       .  T
C1486      N1488   1.157       .  T
C1489      C1490   1.405       .  A
C1489      C1494   1.402       .  A
C1490      C1491   1.396       .  A
C1490      H1495   1.081       .  S
C1491      C1492   1.405       .  A
C1491      C1498   1.444       .  S
C1492      C1493   1.407       .  A
C1493      C1494   1.402       .  A
C1493      H1496   1.083       .  S
C1494      C1497   1.438       .  S
C1497      N1499   1.156       .  T
C1498      N1500   1.158       .  T
C1501      C1502   1.406       .  A
C1501      C1506   1.402       .  A
C1502      C1503   1.396       .  A
C1502      H1507   1.085       .  S
C1503      C1504   1.404       .  A
C1503      C1510   1.443       .  S
C1504      C1505   1.410       .  A
C1505      C1506   1.406       .  A
C1505      H1508   1.084       .  S
C1506      C1509   1.437       .  S
C1509      N1511   1.155       .  T
C1510      N1512   1.157       .  T
O1513      C1523   1.272       .  A
O1514      C1524   1.274       .  A
O1514     Cu1521   1.971       .  S
O1515      C1525   1.279       .  A
O1516      C1526   1.281       .  A
O1516     Cu1521   2.024       .  S
O1517      C1526   1.273       .  A
O1518      C1525   1.274       .  A
O1518     Cu1522   1.987       .  S
O1519      C1524   1.282       .  A
O1520      C1523   1.282       .  A
O1520     Cu1522   2.031       .  S
C1523      C1717   1.477       .  S
C1524      C1681   1.494       .  S
C1525      C1696   1.472       .  S
C1526      C1705   1.471       .  S
O1527      C2401   1.276       .  A
O1527     Cu1535   2.000       .  S
O1528      C2402   1.280       .  A
O1529      C2403   1.281       .  A
O1530      C2404   1.277       .  A
O1531      C1540   1.278       .  A
O1532      C1539   1.277       .  A
O1533      C1538   1.277       .  A
O1534      C1537   1.279       .  A
O1534     Cu1536   2.001       .  S
Cu1535    Cu2400   2.364       .  S
C1537      C1669   1.484       .  S
C1538      C1636   1.499       .  S
C1539      C1648   1.488       .  S
C1540      C1657   1.484       .  S
C1541      C1543   1.549       .  S
C1541      C1545   1.555       .  S
C1541      C1544   1.552       .  S
C1541      C1611   1.557       .  S
C1542      C1546   1.524       .  S
C1542      C1548   1.532       .  S
C1542      C1547   1.553       .  S
C1542      C1610   1.552       .  S
C1543      C1551   1.387       .  A
C1543      C2410   1.388       .  A
C1544      C1555   1.388       .  A
C1544      C2411   1.392       .  A
C1545      C1559   1.393       .  A
C1545      C2412   1.393       .  A
C1546      C1549   1.369       .  A
C1547      C1553   1.391       .  A
C1548      C1556   1.371       .  A
C1549      N1550   1.349       .  A
C1549      H1562   1.081       .  S
N1550      C1672   1.436       .  S
C1551      N2414   1.360       .  A
C1551      H1552   1.082       .  S
C1553      N1554   1.368       .  A
C1553      H1563   1.082       .  S
N1554      N1577   1.427       .  S
C1555      N2418   1.363       .  A
C1555      H1561   1.081       .  S
C1556      N1557   1.346       .  A
C1556      H1558   1.081       .  S
N1557      C1660   1.438       .  S
C1559      N2421   1.364       .  A
C1559      H1560   1.081       .  S
C1564      C1566   1.550       .  S
C1564      C1568   1.544       .  S
C1564      C1567   1.555       .  S
C1564      C1587   1.557       .  S
C1565      C1569   1.537       .  S
C1565      C1571   1.541       .  S
C1565      C1570   1.549       .  S
C1565      C1588   1.554       .  S
C1566      C1574   1.389       .  A
C1567      C1578   1.389       .  A
C1568      C1582   1.384       .  A
C1569      C2430   1.390       .  A
C1569      C1572   1.376       .  A
C1570      C2431   1.392       .  A
C1570      C1576   1.391       .  A
C1571      C2432   1.388       .  A
C1571      C1579   1.379       .  A
C1572      N2437   1.351       .  A
C1572      H1585   1.078       .  S
N1573      C1574   1.362       .  A
N1573      C1645   1.442       .  S
C1574      H1575   1.082       .  S
C1576      N2441   1.368       .  A
C1576      H1586   1.082       .  S
N1577      C1578   1.363       .  A
C1578      H1584   1.080       .  S
C1579      N2444   1.359       .  A
C1579      H1581   1.080       .  S
N1580      C1582   1.362       .  A
N1580      C1633   1.451       .  S
C1582      H1583   1.082       .  S
C1587      C1589   1.535       .  S
C1587      C1591   1.541       .  S
C1587      C1590   1.550       .  S
C1588      C1592   1.538       .  S
C1588      C1594   1.539       .  S
C1588      C1593   1.548       .  S
C1589      C1597   1.370       .  A
C1589      C1592   1.392       .  A
C1590      C1601   1.389       .  A
C1590      C1593   1.393       .  A
C1591      C1605   1.375       .  A
C1591      C1594   1.382       .  A
C1592      C1595   1.382       .  A
C1593      C1599   1.384       .  A
C1594      C1602   1.375       .  A
C1595      N1596   1.357       .  A
C1595      H1608   1.082       .  S
N1596      C1597   1.350       .  A
N1596      C1693   1.431       .  S
C1597      H1598   1.078       .  S
C1599      N1600   1.358       .  A
C1599      H1609   1.081       .  S
N1600      C1601   1.369       .  A
C1601      H1607   1.081       .  S
C1602      N1603   1.367       .  A
C1602      H1604   1.071       .  S
N1603      C1605   1.366       .  A
N1603      C1684   1.466       .  S
C1605      H1606   1.076       .  S
C1610      C1612   1.531       .  S
C1610      C1614   1.534       .  S
C1610      C1613   1.546       .  S
C1611      C1615   1.536       .  S
C1611      C1617   1.547       .  S
C1611      C1616   1.553       .  S
C1612      C1620   1.372       .  A
C1612      C1615   1.388       .  A
C1613      C1624   1.383       .  A
C1613      C1616   1.392       .  A
C1614      C1628   1.379       .  A
C1614      C1617   1.394       .  A
C1615      C1618   1.376       .  A
C1616      C1622   1.391       .  A
C1617      C1625   1.379       .  A
C1618      N1619   1.355       .  A
C1618      H1631   1.078       .  S
N1619      C1620   1.354       .  A
N1619      C1708   1.435       .  S
C1620      H1621   1.081       .  S
C1622      N1623   1.370       .  A
C1622      H1632   1.081       .  S
N1623      C1624   1.358       .  A
C1624      H1630   1.081       .  S
C1625      N1626   1.355       .  A
C1625      H1627   1.081       .  S
N1626      C1628   1.354       .  A
N1626      C1720   1.436       .  S
C1628      H1629   1.082       .  S
C1633      C1634   1.406       .  A
C1634      C1635   1.404       .  A
C1634      H1639   1.082       .  S
C1635      C1636   1.417       .  A
C1635      C1642   1.443       .  S
C1637      C2500   1.410       .  A
C1637      C1638   1.406       .  A
C1637      H1640   1.084       .  S
C1638      C2497   1.413       .  A
C1638      C1641   1.444       .  S
C1641      N1643   1.158       .  T
C1642      N1644   1.157       .  T
C1645      C1650   1.409       .  A
C1646      C2509   1.400       .  A
C1646      C1647   1.405       .  A
C1646      H1651   1.085       .  S
C1647      C2512   1.419       .  A
C1647      C1654   1.444   1_565  S
C1648      C1649   1.404       .  A
C1649      C1650   1.404       .  A
C1649      H1652   1.085       .  S
C1650      C1653   1.438       .  S
C1653      N1655   1.156       .  T
C1657      C1658   1.404       .  A
C1658      C1659   1.405       .  A
C1658      H1663   1.084       .  S
C1659      C1660   1.411       .  A
C1659      C1666   1.442       .  S
C1661      C2524   1.399       .  A
C1661      C1662   1.399       .  A
C1661      H1664   1.085       .  S
C1662      C2521   1.417       .  A
C1662      C1665   1.442       .  S
C1666      N1668   1.157       .  T
C1669      C1670   1.406       .  A
C1670      C1671   1.396       .  A
C1670      H1675   1.085       .  S
C1671      C1672   1.408       .  A
C1671      C1678   1.443       .  S
C1673      C2536   1.406       .  A
C1673      C1674   1.404       .  A
C1673      H1676   1.084       .  S
C1674      C2533   1.411       .  A
C1674      C1677   1.441       .  S
C1677      N1679   1.156       .  T
C1678      N1680   1.157       .  T
C1681      C1682   1.405       .  A
C1681      C1686   1.410       .  A
C1682      C1683   1.399       .  A
C1682      H1687   1.085       .  S
C1683      C1684   1.426       .  A
C1683      C1690   1.440       .  S
C1684      C1685   1.417       .  A
C1685      C1686   1.402       .  A
C1685      H1688   1.078       .  S
C1686      C1689   1.445       .  S
C1689      N1691   1.157       .  T
C1690      N1692   1.157       .  T
C1693      C1694   1.395       .  A
C1693      C1698   1.411       .  A
C1694      C1695   1.395       .  A
C1694      H1699   1.085       .  S
C1695      C1696   1.418       .  A
C1695      C1702   1.445       .  S
C1696      C1697   1.398       .  A
C1697      C1698   1.400       .  A
C1697      H1700   1.085       .  S
C1698      C1701   1.437       .  S
C1701      N1703   1.155       .  T
C1702      N1704   1.157       .  T
C1705      C1706   1.405       .  A
C1705      C1710   1.402       .  A
C1706      C1707   1.396       .  A
C1706      H1711   1.081       .  S
C1707      C1708   1.405       .  A
C1707      C1714   1.444       .  S
C1708      C1709   1.407       .  A
C1709      C1710   1.402       .  A
C1709      H1712   1.083       .  S
C1710      C1713   1.438       .  S
C1713      N1715   1.156       .  T
C1714      N1716   1.158       .  T
C1717      C1718   1.406       .  A
C1717      C1722   1.402       .  A
C1718      C1719   1.396       .  A
C1718      H1723   1.085       .  S
C1719      C1720   1.404       .  A
C1719      C1726   1.443       .  S
C1720      C1721   1.410       .  A
C1721      C1722   1.406       .  A
C1721      H1724   1.084       .  S
C1722      C1725   1.437       .  S
C1725      N1727   1.155       .  T
C1726      N1728   1.157       .  T
O1729      C1739   1.272       .  A
O1729     Cu1953   1.974   1_554  S
O1730      C1740   1.274       .  A
O1730     Cu1737   1.971       .  S
O1731      C1741   1.279       .  A
O1731     Cu1953   2.014   1_554  S
O1732      C1742   1.281       .  A
O1732     Cu1737   2.024       .  S
O1733      C1742   1.273       .  A
O1733     Cu1954   1.981       .  S
O1734      C1741   1.274       .  A
O1734     Cu1738   1.987       .  S
O1735      C1740   1.282       .  A
O1735     Cu1954   2.028       .  S
O1736      C1739   1.282       .  A
O1736     Cu1738   2.031       .  S
Cu1737     O1945   1.974       .  S
Cu1737     O1947   2.014       .  S
Cu1737    Cu1954   2.369       .  S
Cu1738     O1949   1.981   1_554  S
Cu1738     O1951   2.028   1_554  S
Cu1738    Cu1953   2.369   1_554  S
C1739      C1933   1.477       .  S
C1740      C1897   1.493       .  S
C1741      C1912   1.472       .  S
C1742      C1921   1.471       .  S
O1743      C2617   1.276       .  A
O1743     Cu1751   2.000   1_554  S
O1744      C2618   1.280       .  A
O1744     Cu2399   2.023       .  S
O1745      C2619   1.281       .  A
O1745     Cu2183   2.025   1_554  S
O1746      C2620   1.277       .  A
O1746     Cu1967   2.008       .  S
O1747      C1756   1.278       .  A
O1747     Cu1968   2.011   1_545  S
O1748      C1755   1.277       .  A
O1748     Cu2184   2.004       .  S
O1749      C1754   1.277       .  A
O1749     Cu2400   1.995       .  S
O1750      C1753   1.279       .  A
O1750     Cu1752   2.001   1_545  S
Cu1751     O2392   2.023   1_545  S
Cu1751     O2177   2.025   1_546  S
Cu1751     O1962   2.008       .  S
Cu1751    Cu2616   2.364   1_546  S
Cu1752     O1963   2.011   1_564  S
Cu1752     O2180   2.004       .  S
Cu1752     O2397   1.995   1_554  S
C1753      C1885   1.484       .  S
C1754      C1852   1.499       .  S
C1755      C1864   1.488       .  S
C1756      C1873   1.484       .  S
C1757      C1759   1.549       .  S
C1757      C1761   1.555       .  S
C1757      C1760   1.552       .  S
C1757      C1827   1.557       .  S
C1758      C1762   1.524       .  S
C1758      C1764   1.532       .  S
C1758      C1763   1.553       .  S
C1758      C1826   1.552       .  S
C1759      C1767   1.387       .  A
C1759      C2626   1.388       .  A
C1760      C1771   1.388       .  A
C1760      C2627   1.392       .  A
C1761      C1775   1.393       .  A
C1761      C2628   1.393       .  A
C1762      C1765   1.369       .  A
C1763      C1769   1.391       .  A
C1764      C1772   1.371       .  A
C1765      N1766   1.349       .  A
C1765      H1778   1.081       .  S
N1766      C1888   1.436       .  S
C1767      N2630   1.360       .  A
C1767      H1768   1.082       .  S
C1769      N1770   1.368       .  A
C1769      H1779   1.082       .  S
N1770      N1793   1.427       .  S
C1771      N2634   1.363       .  A
C1771      H1777   1.081       .  S
C1772      N1773   1.346       .  A
C1772      H1774   1.081       .  S
N1773      C1876   1.438       .  S
C1775      N2637   1.364       .  A
C1775      H1776   1.081       .  S
C1780      C1782   1.550       .  S
C1780      C1784   1.544       .  S
C1780      C1783   1.555       .  S
C1780      C1803   1.557       .  S
C1781      C1785   1.537       .  S
C1781      C1787   1.541       .  S
C1781      C1786   1.549       .  S
C1781      C1804   1.554       .  S
C1782      C1790   1.389       .  A
C1783      C1794   1.389       .  A
C1784      C1798   1.384       .  A
C1785      C2646   1.390       .  A
C1785      C1788   1.376       .  A
C1786      C2647   1.392       .  A
C1786      C1792   1.391       .  A
C1787      C2648   1.388       .  A
C1787      C1795   1.379       .  A
C1788      N2653   1.351       .  A
C1788      H1801   1.078       .  S
N1789      C1790   1.362       .  A
N1789      C1861   1.442       .  S
C1790      H1791   1.082       .  S
C1792      N2657   1.368       .  A
C1792      H1802   1.082       .  S
N1793      C1794   1.363       .  A
C1794      H1800   1.080       .  S
C1795      N2660   1.359       .  A
C1795      H1797   1.080       .  S
N1796      C1798   1.362       .  A
N1796      C1849   1.451       .  S
C1798      H1799   1.082       .  S
C1803      C1805   1.535       .  S
C1803      C1807   1.541       .  S
C1803      C1806   1.550       .  S
C1804      C1808   1.538       .  S
C1804      C1810   1.539       .  S
C1804      C1809   1.548       .  S
C1805      C1813   1.370       .  A
C1805      C1808   1.392       .  A
C1806      C1817   1.389       .  A
C1806      C1809   1.393       .  A
C1807      C1821   1.375       .  A
C1807      C1810   1.382       .  A
C1808      C1811   1.382       .  A
C1809      C1815   1.384       .  A
C1810      C1818   1.375       .  A
C1811      N1812   1.357       .  A
C1811      H1824   1.082       .  S
N1812      C1813   1.350       .  A
N1812      C1909   1.431       .  S
C1813      H1814   1.078       .  S
C1815      N1816   1.358       .  A
C1815      H1825   1.081       .  S
N1816      C1817   1.369       .  A
N1816      N2271   1.423       .  S
C1817      H1823   1.081       .  S
C1818      N1819   1.367       .  A
C1818      H1820   1.071       .  S
N1819      C1821   1.366       .  A
N1819      C1900   1.466       .  S
C1821      H1822   1.076       .  S
C1826      C1828   1.531       .  S
C1826      C1830   1.534       .  S
C1826      C1829   1.546       .  S
C1827      C1831   1.536       .  S
C1827      C1833   1.547       .  S
C1827      C1832   1.553       .  S
C1828      C1836   1.372       .  A
C1828      C1831   1.388       .  A
C1829      C1840   1.383       .  A
C1829      C1832   1.392       .  A
C1830      C1844   1.379       .  A
C1830      C1833   1.394       .  A
C1831      C1834   1.376       .  A
C1832      C1838   1.391       .  A
C1833      C1841   1.379       .  A
C1834      N1835   1.355       .  A
C1834      H1847   1.078       .  S
N1835      C1836   1.354       .  A
N1835      C1924   1.435       .  S
C1836      H1837   1.081       .  S
C1838      N1839   1.370       .  A
C1838      H1848   1.081       .  S
N1839      C1840   1.357       .  A
N1839      N2248   1.423   1_545  S
C1840      H1846   1.081       .  S
C1841      N1842   1.355       .  A
C1841      H1843   1.081       .  S
N1842      C1844   1.354       .  A
N1842      C1936   1.436       .  S
C1844      H1845   1.082       .  S
C1849      C1850   1.406       .  A
C1850      C1851   1.404       .  A
C1850      H1855   1.082       .  S
C1851      C1852   1.417       .  A
C1851      C1858   1.443       .  S
C1853      C2716   1.410       .  A
C1853      C1854   1.406       .  A
C1853      H1856   1.084       .  S
C1854      C2713   1.413       .  A
C1854      C1857   1.444       .  S
C1857      N1859   1.158       .  T
C1858      N1860   1.157       .  T
C1861      C1866   1.409       .  A
C1862      C2725   1.400       .  A
C1862      C1863   1.405       .  A
C1862      H1867   1.085       .  S
C1863      C2728   1.419       .  A
C1863      C1870   1.444       .  S
C1864      C1865   1.404       .  A
C1865      C1866   1.404       .  A
C1865      H1868   1.085       .  S
C1866      C1869   1.438       .  S
C1869      N1871   1.156       .  T
C1870      N2304   1.157       .  T
N1872      C2302   1.157       .  T
C1873      C1874   1.404       .  A
C1874      C1875   1.405       .  A
C1874      H1879   1.084       .  S
C1875      C1876   1.411       .  A
C1875      C1882   1.442       .  S
C1877      C2740   1.399       .  A
C1877      C1878   1.399       .  A
C1877      H1880   1.085       .  S
C1878      C2737   1.417       .  A
C1878      C1881   1.442       .  S
C1881      N2315   1.157   1_545  T
C1882      N1884   1.157       .  T
N1883      C2313   1.157       .  T
C1885      C1886   1.406       .  A
C1886      C1887   1.396       .  A
C1886      H1891   1.085       .  S
C1887      C1888   1.408       .  A
C1887      C1894   1.443       .  S
C1889      C2752   1.406       .  A
C1889      C1890   1.404       .  A
C1889      H1892   1.084       .  S
C1890      C2749   1.411       .  A
C1890      C1893   1.441       .  S
C1893      N1895   1.156       .  T
C1894      N1896   1.157   1_545  T
C1897      C1898   1.405       .  A
C1897      C1902   1.410       .  A
C1898      C1899   1.399       .  A
C1898      H1903   1.085       .  S
C1899      C1900   1.426       .  A
C1899      C1906   1.440       .  S
C1900      C1901   1.417       .  A
C1901      C1902   1.402       .  A
C1901      H1904   1.078       .  S
C1902      C1905   1.445       .  S
C1905      N1907   1.157       .  T
C1906      N1908   1.157       .  T
C1909      C1910   1.395       .  A
C1909      C1914   1.411       .  A
C1910      C1911   1.395       .  A
C1910      H1915   1.085       .  S
C1911      C1912   1.418       .  A
C1911      C1918   1.445       .  S
C1912      C1913   1.398       .  A
C1913      C1914   1.400       .  A
C1913      H1916   1.085       .  S
C1914      C1917   1.437       .  S
C1917      N1919   1.155       .  T
C1918      N1920   1.157       .  T
C1921      C1922   1.405       .  A
C1921      C1926   1.402       .  A
C1922      C1923   1.396       .  A
C1922      H1927   1.081       .  S
C1923      C1924   1.405       .  A
C1923      C1930   1.444       .  S
C1924      C1925   1.407       .  A
C1925      C1926   1.402       .  A
C1925      H1928   1.083       .  S
C1926      C1929   1.438       .  S
C1929      N1931   1.156       .  T
C1930      N1932   1.158       .  T
C1933      C1934   1.406       .  A
C1933      C1938   1.402       .  A
C1934      C1935   1.396       .  A
C1934      H1939   1.085       .  S
C1935      C1936   1.404       .  A
C1935      C1942   1.443       .  S
C1936      C1937   1.410       .  A
C1937      C1938   1.406       .  A
C1937      H1940   1.084       .  S
C1938      C1941   1.437       .  S
C1941      N1943   1.155       .  T
C1942      N1944   1.157       .  T
O1945      C1955   1.272       .  A
O1946      C1956   1.274       .  A
O1946     Cu1953   1.971       .  S
O1947      C1957   1.279       .  A
O1948      C1958   1.281       .  A
O1948     Cu1953   2.024       .  S
O1949      C1958   1.273       .  A
O1950      C1957   1.274       .  A
O1950     Cu1954   1.987       .  S
O1951      C1956   1.282       .  A
O1952      C1955   1.282       .  A
O1952     Cu1954   2.031       .  S
C1955      C2149   1.477       .  S
C1956      C2113   1.493       .  S
C1957      C2128   1.472       .  S
C1958      C2137   1.471       .  S
O1959      C2833   1.276       .  A
O1959     Cu1967   2.000       .  S
O1960      C2834   1.280       .  A
O1960     Cu2183   2.023       .  S
O1961      C2835   1.281       .  A
O1961     Cu2399   2.025       .  S
O1962      C2836   1.277       .  A
O1963      C1972   1.278       .  A
O1964      C1971   1.277       .  A
O1964     Cu2400   2.004       .  S
O1965      C1970   1.277       .  A
O1965     Cu2184   1.995   1_556  S
O1966      C1969   1.279       .  A
O1966     Cu1968   2.001   1_545  S
Cu1967     O2176   2.023   1_545  S
Cu1967     O2393   2.025   1_545  S
Cu1967    Cu2832   2.364   1_545  S
Cu1968     O2396   2.004       .  S
Cu1968     O2181   1.995       .  S
C1969      C2101   1.484       .  S
C1970      C2068   1.499       .  S
C1971      C2080   1.488       .  S
C1972      C2089   1.484       .  S
C1973      C1975   1.549       .  S
C1973      C1977   1.555       .  S
C1973      C1976   1.552       .  S
C1973      C2043   1.557       .  S
C1974      C1978   1.524       .  S
C1974      C1980   1.532       .  S
C1974      C1979   1.553       .  S
C1974      C2042   1.552       .  S
C1975      C1983   1.387       .  A
C1975      C2842   1.388       .  A
C1976      C1987   1.388       .  A
C1976      C2843   1.392       .  A
C1977      C1991   1.393       .  A
C1977      C2844   1.393       .  A
C1978      C1981   1.369       .  A
C1979      C1985   1.391       .  A
C1980      C1988   1.371       .  A
C1981      N1982   1.349       .  A
C1981      H1994   1.081       .  S
N1982      C2104   1.436       .  S
C1983      N2846   1.360       .  A
C1983      H1984   1.082       .  S
C1985      N1986   1.368       .  A
C1985      H1995   1.082       .  S
N1986      N2009   1.427       .  S
C1987      N2850   1.363       .  A
C1987      H1993   1.081       .  S
C1988      N1989   1.346       .  A
C1988      H1990   1.081       .  S
N1989      C2092   1.438       .  S
C1991      N2853   1.364       .  A
C1991      H1992   1.081       .  S
C1996      C1998   1.550       .  S
C1996      C2000   1.544       .  S
C1996      C1999   1.555       .  S
C1996      C2019   1.557       .  S
C1997      C2001   1.537       .  S
C1997      C2003   1.541       .  S
C1997      C2002   1.549       .  S
C1997      C2020   1.554       .  S
C1998      C2006   1.389       .  A
C1999      C2010   1.389       .  A
C2000      C2014   1.384       .  A
C2001      C2862   1.390       .  A
C2001      C2004   1.376       .  A
C2002      C2863   1.392       .  A
C2002      C2008   1.391       .  A
C2003      C2864   1.388       .  A
C2003      C2011   1.379       .  A
C2004      N2869   1.351       .  A
C2004      H2017   1.078       .  S
N2005      C2006   1.362       .  A
N2005      C2077   1.442       .  S
C2006      H2007   1.082       .  S
C2008      N2873   1.368       .  A
C2008      H2018   1.082       .  S
N2009      C2010   1.363       .  A
C2010      H2016   1.080       .  S
C2011      N2876   1.359       .  A
C2011      H2013   1.080       .  S
N2012      C2014   1.362       .  A
N2012      C2065   1.451       .  S
C2014      H2015   1.082       .  S
C2019      C2021   1.535       .  S
C2019      C2023   1.541       .  S
C2019      C2022   1.550       .  S
C2020      C2024   1.538       .  S
C2020      C2026   1.539       .  S
C2020      C2025   1.548       .  S
C2021      C2029   1.370       .  A
C2021      C2024   1.392       .  A
C2022      C2033   1.389       .  A
C2022      C2025   1.393       .  A
C2023      C2037   1.375       .  A
C2023      C2026   1.382       .  A
C2024      C2027   1.382       .  A
C2025      C2031   1.384       .  A
C2026      C2034   1.375       .  A
C2027      N2028   1.357       .  A
C2027      H2040   1.082       .  S
N2028      C2029   1.350       .  A
N2028      C2125   1.431       .  S
C2029      H2030   1.078       .  S
C2031      N2032   1.358       .  A
C2031      H2041   1.081       .  S
N2032      C2033   1.369       .  A
N2032      N2487   1.423       .  S
C2033      H2039   1.081       .  S
C2034      N2035   1.367       .  A
C2034      H2036   1.071       .  S
N2035      C2037   1.366       .  A
N2035      C2116   1.466       .  S
C2037      H2038   1.076       .  S
C2042      C2044   1.531       .  S
C2042      C2046   1.534       .  S
C2042      C2045   1.546       .  S
C2043      C2047   1.536       .  S
C2043      C2049   1.547       .  S
C2043      C2048   1.553       .  S
C2044      C2052   1.372       .  A
C2044      C2047   1.388       .  A
C2045      C2056   1.383       .  A
C2045      C2048   1.392       .  A
C2046      C2060   1.379       .  A
C2046      C2049   1.394       .  A
C2047      C2050   1.376       .  A
C2048      C2054   1.391       .  A
C2049      C2057   1.379       .  A
C2050      N2051   1.355       .  A
C2050      H2063   1.078       .  S
N2051      C2052   1.354       .  A
N2051      C2140   1.435       .  S
C2052      H2053   1.081       .  S
C2054      N2055   1.370       .  A
C2054      H2064   1.081       .  S
N2055      C2056   1.357       .  A
N2055      N2464   1.423   1_545  S
C2056      H2062   1.081       .  S
C2057      N2058   1.355       .  A
C2057      H2059   1.081       .  S
N2058      C2060   1.354       .  A
N2058      C2152   1.436       .  S
C2060      H2061   1.082       .  S
C2065      C2066   1.406       .  A
C2066      C2067   1.404       .  A
C2066      H2071   1.082       .  S
C2067      C2068   1.417       .  A
C2067      C2074   1.443       .  S
C2069      C2932   1.410       .  A
C2069      C2070   1.406       .  A
C2069      H2072   1.084       .  S
C2070      C2929   1.413       .  A
C2070      C2073   1.444       .  S
C2073      N2075   1.158       .  T
C2074      N2076   1.157       .  T
C2077      C2082   1.409       .  A
C2078      C2941   1.400       .  A
C2078      C2079   1.405       .  A
C2078      H2083   1.085       .  S
C2079      C2944   1.419       .  A
C2079      C2086   1.444       .  S
C2080      C2081   1.404       .  A
C2081      C2082   1.404       .  A
C2081      H2084   1.085       .  S
C2082      C2085   1.438       .  S
C2085      N2087   1.156       .  T
C2086      N2520   1.157       .  T
N2088      C2518   1.157       .  T
C2089      C2090   1.404       .  A
C2090      C2091   1.405       .  A
C2090      H2095   1.084       .  S
C2091      C2092   1.411       .  A
C2091      C2098   1.442       .  S
C2093      C2956   1.399       .  A
C2093      C2094   1.399       .  A
C2093      H2096   1.085       .  S
C2094      C2953   1.417       .  A
C2094      C2097   1.442       .  S
C2097      N2531   1.157   1_545  T
C2098      N2100   1.157       .  T
N2099      C2529   1.157       .  T
C2101      C2102   1.406       .  A
C2102      C2103   1.396       .  A
C2102      H2107   1.085       .  S
C2103      C2104   1.408       .  A
C2103      C2110   1.443       .  S
C2105      C2968   1.406       .  A
C2105      C2106   1.404       .  A
C2105      H2108   1.084       .  S
C2106      C2965   1.411       .  A
C2106      C2109   1.441       .  S
C2109      N2111   1.156       .  T
C2110      N2112   1.157   1_545  T
C2113      C2114   1.405       .  A
C2113      C2118   1.410       .  A
C2114      C2115   1.399       .  A
C2114      H2119   1.085       .  S
C2115      C2116   1.426       .  A
C2115      C2122   1.440       .  S
C2116      C2117   1.417       .  A
C2117      C2118   1.402       .  A
C2117      H2120   1.078       .  S
C2118      C2121   1.445       .  S
C2121      N2123   1.157       .  T
C2122      N2124   1.157       .  T
C2125      C2126   1.395       .  A
C2125      C2130   1.411       .  A
C2126      C2127   1.395       .  A
C2126      H2131   1.085       .  S
C2127      C2128   1.418       .  A
C2127      C2134   1.445       .  S
C2128      C2129   1.398       .  A
C2129      C2130   1.400       .  A
C2129      H2132   1.085       .  S
C2130      C2133   1.437       .  S
C2133      N2135   1.155       .  T
C2134      N2136   1.157       .  T
C2137      C2138   1.405       .  A
C2137      C2142   1.402       .  A
C2138      C2139   1.396       .  A
C2138      H2143   1.081       .  S
C2139      C2140   1.405       .  A
C2139      C2146   1.444       .  S
C2140      C2141   1.407       .  A
C2141      C2142   1.402       .  A
C2141      H2144   1.083       .  S
C2142      C2145   1.438       .  S
C2145      N2147   1.156       .  T
C2146      N2148   1.158       .  T
C2149      C2150   1.406       .  A
C2149      C2154   1.402       .  A
C2150      C2151   1.396       .  A
C2150      H2155   1.085       .  S
C2151      C2152   1.404       .  A
C2151      C2158   1.443       .  S
C2152      C2153   1.410       .  A
C2153      C2154   1.406       .  A
C2153      H2156   1.084       .  S
C2154      C2157   1.437       .  S
C2157      N2159   1.155       .  T
C2158      N2160   1.157       .  T
O2161      C2171   1.272       .  A
O2161     Cu2385   1.974   1_554  S
O2162      C2172   1.274       .  A
O2162     Cu2169   1.971       .  S
O2163      C2173   1.279       .  A
O2163     Cu2385   2.014   1_554  S
O2164      C2174   1.281       .  A
O2164     Cu2169   2.024       .  S
O2165      C2174   1.273       .  A
O2165     Cu2386   1.981       .  S
O2166      C2173   1.274       .  A
O2166     Cu2170   1.987       .  S
O2167      C2172   1.282       .  A
O2167     Cu2386   2.028       .  S
O2168      C2171   1.282       .  A
O2168     Cu2170   2.031       .  S
Cu2169     O2377   1.974       .  S
Cu2169     O2379   2.014       .  S
Cu2169    Cu2386   2.369       .  S
Cu2170     O2381   1.981   1_554  S
Cu2170     O2383   2.028   1_554  S
Cu2170    Cu2385   2.369   1_554  S
C2171      C2365   1.477       .  S
C2172      C2329   1.494       .  S
C2173      C2344   1.472       .  S
C2174      C2353   1.471       .  S
O2175      C3049   1.276       .  A
O2175     Cu2183   2.000   1_554  S
O2176      C3050   1.280       .  A
O2177      C3051   1.281       .  A
O2178      C3052   1.277       .  A
O2178     Cu2399   2.008       .  S
O2179      C2188   1.278       .  A
O2179     Cu2400   2.011       .  S
O2180      C2187   1.277       .  A
O2181      C2186   1.277       .  A
O2182      C2185   1.279       .  A
O2182     Cu2184   2.001       .  S
Cu2183     O2394   2.008       .  S
Cu2183    Cu3048   2.364   1_556  S
Cu2184     O2395   2.011   1_554  S
C2185      C2317   1.484       .  S
C2186      C2284   1.499       .  S
C2187      C2296   1.488       .  S
C2188      C2305   1.484       .  S
C2189      C2191   1.549       .  S
C2189      C2193   1.555       .  S
C2189      C2192   1.552       .  S
C2189      C2259   1.557       .  S
C2190      C2194   1.524       .  S
C2190      C2196   1.532       .  S
C2190      C2195   1.553       .  S
C2190      C2258   1.552       .  S
C2191      C2199   1.387       .  A
C2191      C3058   1.388       .  A
C2192      C2203   1.388       .  A
C2192      C3059   1.392       .  A
C2193      C2207   1.393       .  A
C2193      C3060   1.393       .  A
C2194      C2197   1.369       .  A
C2195      C2201   1.391       .  A
C2196      C2204   1.371       .  A
C2197      N2198   1.349       .  A
C2197      H2210   1.081       .  S
N2198      C2320   1.436       .  S
C2199      N3062   1.360       .  A
C2199      H2200   1.082       .  S
C2201      N2202   1.368       .  A
C2201      H2211   1.082       .  S
N2202      N2225   1.427       .  S
C2203      N3066   1.363       .  A
C2203      H2209   1.081       .  S
C2204      N2205   1.346       .  A
C2204      H2206   1.081       .  S
N2205      C2308   1.438       .  S
C2207      N3069   1.364       .  A
C2207      H2208   1.081       .  S
C2212      C2214   1.550       .  S
C2212      C2216   1.544       .  S
C2212      C2215   1.555       .  S
C2212      C2235   1.557       .  S
C2213      C2217   1.537       .  S
C2213      C2219   1.541       .  S
C2213      C2218   1.549       .  S
C2213      C2236   1.554       .  S
C2214      C2222   1.389       .  A
C2215      C2226   1.389       .  A
C2216      C2230   1.384       .  A
C2217      C3078   1.390       .  A
C2217      C2220   1.376       .  A
C2218      C3079   1.392       .  A
C2218      C2224   1.391       .  A
C2219      C3080   1.388       .  A
C2219      C2227   1.379       .  A
C2220      N3085   1.351       .  A
C2220      H2233   1.078       .  S
N2221      C2222   1.362       .  A
N2221      C2293   1.442       .  S
C2222      H2223   1.082       .  S
C2224      N3089   1.368       .  A
C2224      H2234   1.082       .  S
N2225      C2226   1.363       .  A
C2226      H2232   1.080       .  S
C2227      N3092   1.359       .  A
C2227      H2229   1.080       .  S
N2228      C2230   1.362       .  A
N2228      C2281   1.451       .  S
C2230      H2231   1.082       .  S
C2235      C2237   1.535       .  S
C2235      C2239   1.541       .  S
C2235      C2238   1.550       .  S
C2236      C2240   1.538       .  S
C2236      C2242   1.539       .  S
C2236      C2241   1.548       .  S
C2237      C2245   1.370       .  A
C2237      C2240   1.392       .  A
C2238      C2249   1.389       .  A
C2238      C2241   1.393       .  A
C2239      C2253   1.375       .  A
C2239      C2242   1.382       .  A
C2240      C2243   1.382       .  A
C2241      C2247   1.384       .  A
C2242      C2250   1.375       .  A
C2243      N2244   1.357       .  A
C2243      H2256   1.082       .  S
N2244      C2245   1.350       .  A
N2244      C2341   1.431       .  S
C2245      H2246   1.078       .  S
C2247      N2248   1.358       .  A
C2247      H2257   1.081       .  S
N2248      C2249   1.369       .  A
C2249      H2255   1.081       .  S
C2250      N2251   1.367       .  A
C2250      H2252   1.071       .  S
N2251      C2253   1.366       .  A
N2251      C2332   1.466       .  S
C2253      H2254   1.076       .  S
C2258      C2260   1.531       .  S
C2258      C2262   1.534       .  S
C2258      C2261   1.546       .  S
C2259      C2263   1.536       .  S
C2259      C2265   1.547       .  S
C2259      C2264   1.553       .  S
C2260      C2268   1.372       .  A
C2260      C2263   1.388       .  A
C2261      C2272   1.383       .  A
C2261      C2264   1.392       .  A
C2262      C2276   1.379       .  A
C2262      C2265   1.394       .  A
C2263      C2266   1.376       .  A
C2264      C2270   1.391       .  A
C2265      C2273   1.379       .  A
C2266      N2267   1.355       .  A
C2266      H2279   1.078       .  S
N2267      C2268   1.354       .  A
N2267      C2356   1.435       .  S
C2268      H2269   1.081       .  S
C2270      N2271   1.370       .  A
C2270      H2280   1.081       .  S
N2271      C2272   1.358       .  A
C2272      H2278   1.081       .  S
C2273      N2274   1.355       .  A
C2273      H2275   1.081       .  S
N2274      C2276   1.354       .  A
N2274      C2368   1.436       .  S
C2276      H2277   1.082       .  S
C2281      C2282   1.406       .  A
C2282      C2283   1.404       .  A
C2282      H2287   1.082       .  S
C2283      C2284   1.417       .  A
C2283      C2290   1.443       .  S
C2285      C3148   1.410       .  A
C2285      C2286   1.406       .  A
C2285      H2288   1.084       .  S
C2286      C3145   1.413       .  A
C2286      C2289   1.444       .  S
C2289      N2291   1.158       .  T
C2290      N2292   1.157       .  T
C2293      C2298   1.409       .  A
C2294      C3157   1.400       .  A
C2294      C2295   1.405       .  A
C2294      H2299   1.085       .  S
C2295      C3160   1.419       .  A
C2295      C2302   1.444   1_565  S
C2296      C2297   1.404       .  A
C2297      C2298   1.404       .  A
C2297      H2300   1.085       .  S
C2298      C2301   1.438       .  S
C2301      N2303   1.156       .  T
C2305      C2306   1.404       .  A
C2306      C2307   1.405       .  A
C2306      H2311   1.084       .  S
C2307      C2308   1.411       .  A
C2307      C2314   1.442       .  S
C2309      C3172   1.399       .  A
C2309      C2310   1.399       .  A
C2309      H2312   1.085       .  S
C2310      C3169   1.417       .  A
C2310      C2313   1.442       .  S
C2314      N2316   1.157       .  T
C2317      C2318   1.406       .  A
C2318      C2319   1.396       .  A
C2318      H2323   1.085       .  S
C2319      C2320   1.408       .  A
C2319      C2326   1.443       .  S
C2321      C3184   1.406       .  A
C2321      C2322   1.404       .  A
C2321      H2324   1.084       .  S
C2322      C3181   1.411       .  A
C2322      C2325   1.441       .  S
C2325      N2327   1.156       .  T
C2326      N2328   1.157       .  T
C2329      C2330   1.405       .  A
C2329      C2334   1.410       .  A
C2330      C2331   1.399       .  A
C2330      H2335   1.085       .  S
C2331      C2332   1.426       .  A
C2331      C2338   1.440       .  S
C2332      C2333   1.417       .  A
C2333      C2334   1.402       .  A
C2333      H2336   1.078       .  S
C2334      C2337   1.445       .  S
C2337      N2339   1.157       .  T
C2338      N2340   1.157       .  T
C2341      C2342   1.395       .  A
C2341      C2346   1.411       .  A
C2342      C2343   1.395       .  A
C2342      H2347   1.085       .  S
C2343      C2344   1.418       .  A
C2343      C2350   1.445       .  S
C2344      C2345   1.398       .  A
C2345      C2346   1.400       .  A
C2345      H2348   1.085       .  S
C2346      C2349   1.437       .  S
C2349      N2351   1.155       .  T
C2350      N2352   1.157       .  T
C2353      C2354   1.405       .  A
C2353      C2358   1.402       .  A
C2354      C2355   1.396       .  A
C2354      H2359   1.081       .  S
C2355      C2356   1.405       .  A
C2355      C2362   1.444       .  S
C2356      C2357   1.407       .  A
C2357      C2358   1.402       .  A
C2357      H2360   1.083       .  S
C2358      C2361   1.438       .  S
C2361      N2363   1.156       .  T
C2362      N2364   1.158       .  T
C2365      C2366   1.406       .  A
C2365      C2370   1.402       .  A
C2366      C2367   1.396       .  A
C2366      H2371   1.085       .  S
C2367      C2368   1.404       .  A
C2367      C2374   1.443       .  S
C2368      C2369   1.410       .  A
C2369      C2370   1.406       .  A
C2369      H2372   1.084       .  S
C2370      C2373   1.437       .  S
C2373      N2375   1.155       .  T
C2374      N2376   1.157       .  T
O2377      C2387   1.272       .  A
O2378      C2388   1.274       .  A
O2378     Cu2385   1.971       .  S
O2379      C2389   1.279       .  A
O2380      C2390   1.281       .  A
O2380     Cu2385   2.024       .  S
O2381      C2390   1.273       .  A
O2382      C2389   1.274       .  A
O2382     Cu2386   1.987       .  S
O2383      C2388   1.282       .  A
O2384      C2387   1.282       .  A
O2384     Cu2386   2.031       .  S
C2387      C2581   1.477       .  S
C2388      C2545   1.494       .  S
C2389      C2560   1.472       .  S
C2390      C2569   1.471       .  S
O2391      C3265   1.276       .  A
O2391     Cu2399   2.000       .  S
O2392      C3266   1.280       .  A
O2393      C3267   1.281       .  A
O2394      C3268   1.277       .  A
O2395      C2404   1.278       .  A
O2396      C2403   1.277       .  A
O2397      C2402   1.277       .  A
O2398      C2401   1.279       .  A
O2398     Cu2400   2.001       .  S
Cu2399    Cu3264   2.364       .  S
C2401      C2533   1.484       .  S
C2402      C2500   1.499       .  S
C2403      C2512   1.488       .  S
C2404      C2521   1.484       .  S
C2405      C2407   1.549       .  S
C2405      C2409   1.555       .  S
C2405      C2408   1.552       .  S
C2405      C2475   1.557       .  S
C2406      C2410   1.524       .  S
C2406      C2412   1.532       .  S
C2406      C2411   1.553       .  S
C2406      C2474   1.552       .  S
C2407      C2415   1.387       .  A
C2407      C3274   1.388       .  A
C2408      C2419   1.388       .  A
C2408      C3275   1.392       .  A
C2409      C2423   1.393       .  A
C2409      C3276   1.393       .  A
C2410      C2413   1.369       .  A
C2411      C2417   1.391       .  A
C2412      C2420   1.371       .  A
C2413      N2414   1.349       .  A
C2413      H2426   1.081       .  S
N2414      C2536   1.436       .  S
C2415      N3278   1.360       .  A
C2415      H2416   1.082       .  S
C2417      N2418   1.368       .  A
C2417      H2427   1.082       .  S
N2418      N2441   1.427       .  S
C2419      N3282   1.363       .  A
C2419      H2425   1.081       .  S
C2420      N2421   1.346       .  A
C2420      H2422   1.081       .  S
N2421      C2524   1.438       .  S
C2423      N3285   1.364       .  A
C2423      H2424   1.081       .  S
C2428      C2430   1.550       .  S
C2428      C2432   1.544       .  S
C2428      C2431   1.555       .  S
C2428      C2451   1.557       .  S
C2429      C2433   1.537       .  S
C2429      C2435   1.541       .  S
C2429      C2434   1.549       .  S
C2429      C2452   1.554       .  S
C2430      C2438   1.389       .  A
C2431      C2442   1.389       .  A
C2432      C2446   1.384       .  A
C2433      C3294   1.390       .  A
C2433      C2436   1.376       .  A
C2434      C3295   1.392       .  A
C2434      C2440   1.391       .  A
C2435      C3296   1.388       .  A
C2435      C2443   1.379       .  A
C2436      N3301   1.351       .  A
C2436      H2449   1.078       .  S
N2437      C2438   1.362       .  A
N2437      C2509   1.442       .  S
C2438      H2439   1.082       .  S
C2440      N3305   1.368       .  A
C2440      H2450   1.082       .  S
N2441      C2442   1.363       .  A
C2442      H2448   1.080       .  S
C2443      N3308   1.359       .  A
C2443      H2445   1.080       .  S
N2444      C2446   1.362       .  A
N2444      C2497   1.451       .  S
C2446      H2447   1.082       .  S
C2451      C2453   1.535       .  S
C2451      C2455   1.541       .  S
C2451      C2454   1.550       .  S
C2452      C2456   1.538       .  S
C2452      C2458   1.539       .  S
C2452      C2457   1.548       .  S
C2453      C2461   1.370       .  A
C2453      C2456   1.392       .  A
C2454      C2465   1.389       .  A
C2454      C2457   1.393       .  A
C2455      C2469   1.375       .  A
C2455      C2458   1.382       .  A
C2456      C2459   1.382       .  A
C2457      C2463   1.384       .  A
C2458      C2466   1.375       .  A
C2459      N2460   1.357       .  A
C2459      H2472   1.082       .  S
N2460      C2461   1.350       .  A
N2460      C2557   1.431       .  S
C2461      H2462   1.078       .  S
C2463      N2464   1.358       .  A
C2463      H2473   1.081       .  S
N2464      C2465   1.369       .  A
C2465      H2471   1.081       .  S
C2466      N2467   1.367       .  A
C2466      H2468   1.071       .  S
N2467      C2469   1.366       .  A
N2467      C2548   1.466       .  S
C2469      H2470   1.076       .  S
C2474      C2476   1.531       .  S
C2474      C2478   1.534       .  S
C2474      C2477   1.546       .  S
C2475      C2479   1.536       .  S
C2475      C2481   1.547       .  S
C2475      C2480   1.553       .  S
C2476      C2484   1.372       .  A
C2476      C2479   1.388       .  A
C2477      C2488   1.383       .  A
C2477      C2480   1.392       .  A
C2478      C2492   1.379       .  A
C2478      C2481   1.394       .  A
C2479      C2482   1.376       .  A
C2480      C2486   1.391       .  A
C2481      C2489   1.379       .  A
C2482      N2483   1.355       .  A
C2482      H2495   1.078       .  S
N2483      C2484   1.354       .  A
N2483      C2572   1.435       .  S
C2484      H2485   1.081       .  S
C2486      N2487   1.370       .  A
C2486      H2496   1.081       .  S
N2487      C2488   1.358       .  A
C2488      H2494   1.081       .  S
C2489      N2490   1.355       .  A
C2489      H2491   1.081       .  S
N2490      C2492   1.354       .  A
N2490      C2584   1.436       .  S
C2492      H2493   1.082       .  S
C2497      C2498   1.406       .  A
C2498      C2499   1.404       .  A
C2498      H2503   1.082       .  S
C2499      C2500   1.417       .  A
C2499      C2506   1.443       .  S
C2501      C3364   1.410       .  A
C2501      C2502   1.406       .  A
C2501      H2504   1.084       .  S
C2502      C3361   1.413       .  A
C2502      C2505   1.444       .  S
C2505      N2507   1.158       .  T
C2506      N2508   1.157       .  T
C2509      C2514   1.409       .  A
C2510      C3373   1.400       .  A
C2510      C2511   1.405       .  A
C2510      H2515   1.085       .  S
C2511      C3376   1.419       .  A
C2511      C2518   1.444   1_565  S
C2512      C2513   1.404       .  A
C2513      C2514   1.404       .  A
C2513      H2516   1.085       .  S
C2514      C2517   1.438       .  S
C2517      N2519   1.156       .  T
C2521      C2522   1.404       .  A
C2522      C2523   1.405       .  A
C2522      H2527   1.084       .  S
C2523      C2524   1.411       .  A
C2523      C2530   1.442       .  S
C2525      C3388   1.399       .  A
C2525      C2526   1.399       .  A
C2525      H2528   1.085       .  S
C2526      C3385   1.417       .  A
C2526      C2529   1.442       .  S
C2530      N2532   1.157       .  T
C2533      C2534   1.406       .  A
C2534      C2535   1.396       .  A
C2534      H2539   1.085       .  S
C2535      C2536   1.408       .  A
C2535      C2542   1.443       .  S
C2537      C3400   1.406       .  A
C2537      C2538   1.404       .  A
C2537      H2540   1.084       .  S
C2538      C3397   1.411       .  A
C2538      C2541   1.441       .  S
C2541      N2543   1.156       .  T
C2542      N2544   1.157       .  T
C2545      C2546   1.405       .  A
C2545      C2550   1.410       .  A
C2546      C2547   1.399       .  A
C2546      H2551   1.085       .  S
C2547      C2548   1.426       .  A
C2547      C2554   1.440       .  S
C2548      C2549   1.417       .  A
C2549      C2550   1.402       .  A
C2549      H2552   1.078       .  S
C2550      C2553   1.445       .  S
C2553      N2555   1.157       .  T
C2554      N2556   1.157       .  T
C2557      C2558   1.395       .  A
C2557      C2562   1.411       .  A
C2558      C2559   1.395       .  A
C2558      H2563   1.085       .  S
C2559      C2560   1.418       .  A
C2559      C2566   1.445       .  S
C2560      C2561   1.398       .  A
C2561      C2562   1.400       .  A
C2561      H2564   1.085       .  S
C2562      C2565   1.437       .  S
C2565      N2567   1.155       .  T
C2566      N2568   1.157       .  T
C2569      C2570   1.405       .  A
C2569      C2574   1.402       .  A
C2570      C2571   1.396       .  A
C2570      H2575   1.081       .  S
C2571      C2572   1.405       .  A
C2571      C2578   1.444       .  S
C2572      C2573   1.407       .  A
C2573      C2574   1.402       .  A
C2573      H2576   1.083       .  S
C2574      C2577   1.438       .  S
C2577      N2579   1.156       .  T
C2578      N2580   1.158       .  T
C2581      C2582   1.406       .  A
C2581      C2586   1.402       .  A
C2582      C2583   1.396       .  A
C2582      H2587   1.085       .  S
C2583      C2584   1.404       .  A
C2583      C2590   1.443       .  S
C2584      C2585   1.410       .  A
C2585      C2586   1.406       .  A
C2585      H2588   1.084       .  S
C2586      C2589   1.437       .  S
C2589      N2591   1.155       .  T
C2590      N2592   1.157       .  T
O2593      C2603   1.272       .  A
O2593     Cu2817   1.974   1_554  S
O2594      C2604   1.274       .  A
O2594     Cu2601   1.971       .  S
O2595      C2605   1.279       .  A
O2595     Cu2817   2.014   1_554  S
O2596      C2606   1.281       .  A
O2596     Cu2601   2.024       .  S
O2597      C2606   1.273       .  A
O2597     Cu2818   1.981       .  S
O2598      C2605   1.274       .  A
O2598     Cu2602   1.987       .  S
O2599      C2604   1.282       .  A
O2599     Cu2818   2.028       .  S
O2600      C2603   1.282       .  A
O2600     Cu2602   2.031       .  S
Cu2601     O2809   1.974       .  S
Cu2601     O2811   2.014       .  S
Cu2601    Cu2818   2.369       .  S
Cu2602     O2813   1.981   1_554  S
Cu2602     O2815   2.028   1_554  S
Cu2602    Cu2817   2.369   1_554  S
C2603      C2797   1.477       .  S
C2604      C2761   1.493       .  S
C2605      C2776   1.472       .  S
C2606      C2785   1.471       .  S
O2607     Cu2615   2.000   1_554  S
O2608     Cu3263   2.023       .  S
O2609     Cu3047   2.025   1_554  S
O2610     Cu2831   2.008       .  S
O2611      C2620   1.278       .  A
O2611     Cu2832   2.011   1_545  S
O2612      C2619   1.277       .  A
O2612     Cu3048   2.004       .  S
O2613      C2618   1.277       .  A
O2613     Cu3264   1.995       .  S
O2614      C2617   1.279       .  A
O2614     Cu2616   2.001   1_545  S
Cu2615     O3256   2.023   1_545  S
Cu2615     O3041   2.025   1_546  S
Cu2615     O2826   2.008       .  S
Cu2616     O2827   2.011   1_564  S
Cu2616     O3044   2.004       .  S
Cu2616     O3261   1.995   1_554  S
C2617      C2749   1.484       .  S
C2618      C2716   1.499       .  S
C2619      C2728   1.488       .  S
C2620      C2737   1.484       .  S
C2621      C2623   1.549       .  S
C2621      C2625   1.555       .  S
C2621      C2624   1.552       .  S
C2621      C2691   1.557       .  S
C2622      C2626   1.524       .  S
C2622      C2628   1.532       .  S
C2622      C2627   1.553       .  S
C2622      C2690   1.552       .  S
C2623      C2631   1.387       .  A
C2624      C2635   1.388       .  A
C2625      C2639   1.393       .  A
C2626      C2629   1.369       .  A
C2627      C2633   1.391       .  A
C2628      C2636   1.371       .  A
C2629      N2630   1.349       .  A
C2629      H2642   1.081       .  S
N2630      C2752   1.436       .  S
C2631      H2632   1.082       .  S
C2633      N2634   1.368       .  A
C2633      H2643   1.082       .  S
N2634      N2657   1.427       .  S
C2635      H2641   1.081       .  S
C2636      N2637   1.346       .  A
C2636      H2638   1.081       .  S
N2637      C2740   1.438       .  S
C2639      H2640   1.081       .  S
C2644      C2646   1.550       .  S
C2644      C2648   1.544       .  S
C2644      C2647   1.555       .  S
C2644      C2667   1.557       .  S
C2645      C2649   1.537       .  S
C2645      C2651   1.541       .  S
C2645      C2650   1.549       .  S
C2645      C2668   1.554       .  S
C2646      C2654   1.389       .  A
C2647      C2658   1.389       .  A
C2648      C2662   1.384       .  A
C2649      C2652   1.376       .  A
C2650      C2656   1.391       .  A
C2651      C2659   1.379       .  A
C2652      H2665   1.078       .  S
N2653      C2654   1.362       .  A
N2653      C2725   1.442       .  S
C2654      H2655   1.082       .  S
C2656      H2666   1.082       .  S
N2657      C2658   1.363       .  A
C2658      H2664   1.080       .  S
C2659      H2661   1.080       .  S
N2660      C2662   1.362       .  A
N2660      C2713   1.451       .  S
C2662      H2663   1.082       .  S
C2667      C2669   1.535       .  S
C2667      C2671   1.541       .  S
C2667      C2670   1.550       .  S
C2668      C2672   1.538       .  S
C2668      C2674   1.539       .  S
C2668      C2673   1.548       .  S
C2669      C2677   1.370       .  A
C2669      C2672   1.392       .  A
C2670      C2681   1.389       .  A
C2670      C2673   1.393       .  A
C2671      C2685   1.375       .  A
C2671      C2674   1.382       .  A
C2672      C2675   1.382       .  A
C2673      C2679   1.384       .  A
C2674      C2682   1.375       .  A
C2675      N2676   1.357       .  A
C2675      H2688   1.082       .  S
N2676      C2677   1.350       .  A
N2676      C2773   1.431       .  S
C2677      H2678   1.078       .  S
C2679      N2680   1.358       .  A
C2679      H2689   1.081       .  S
N2680      C2681   1.369       .  A
N2680      N3135   1.423       .  S
C2681      H2687   1.081       .  S
C2682      N2683   1.367       .  A
C2682      H2684   1.071       .  S
N2683      C2685   1.366       .  A
N2683      C2764   1.466       .  S
C2685      H2686   1.076       .  S
C2690      C2692   1.531       .  S
C2690      C2694   1.534       .  S
C2690      C2693   1.546       .  S
C2691      C2695   1.536       .  S
C2691      C2697   1.547       .  S
C2691      C2696   1.553       .  S
C2692      C2700   1.372       .  A
C2692      C2695   1.388       .  A
C2693      C2704   1.383       .  A
C2693      C2696   1.392       .  A
C2694      C2708   1.379       .  A
C2694      C2697   1.394       .  A
C2695      C2698   1.376       .  A
C2696      C2702   1.391       .  A
C2697      C2705   1.379       .  A
C2698      N2699   1.355       .  A
C2698      H2711   1.078       .  S
N2699      C2700   1.354       .  A
N2699      C2788   1.435       .  S
C2700      H2701   1.081       .  S
C2702      N2703   1.370       .  A
C2702      H2712   1.081       .  S
N2703      C2704   1.357       .  A
N2703      N3112   1.423   1_545  S
C2704      H2710   1.081       .  S
C2705      N2706   1.355       .  A
C2705      H2707   1.081       .  S
N2706      C2708   1.354       .  A
N2706      C2800   1.436       .  S
C2708      H2709   1.082       .  S
C2713      C2714   1.406       .  A
C2714      C2715   1.404       .  A
C2714      H2719   1.082       .  S
C2715      C2716   1.417       .  A
C2715      C2722   1.443       .  S
C2717      C2718   1.406       .  A
C2717      H2720   1.084       .  S
C2718      C2721   1.444       .  S
C2721      N2723   1.158       .  T
C2722      N2724   1.157       .  T
C2725      C2730   1.409       .  A
C2726      C2727   1.405       .  A
C2726      H2731   1.085       .  S
C2727      C2734   1.444       .  S
C2728      C2729   1.404       .  A
C2729      C2730   1.404       .  A
C2729      H2732   1.085       .  S
C2730      C2733   1.438       .  S
C2733      N2735   1.156       .  T
C2734      N3168   1.157       .  T
N2736      C3166   1.157       .  T
C2737      C2738   1.404       .  A
C2738      C2739   1.405       .  A
C2738      H2743   1.084       .  S
C2739      C2740   1.411       .  A
C2739      C2746   1.442       .  S
C2741      C2742   1.399       .  A
C2741      H2744   1.085       .  S
C2742      C2745   1.442       .  S
C2745      N3179   1.157   1_545  T
C2746      N2748   1.157       .  T
N2747      C3177   1.157       .  T
C2749      C2750   1.406       .  A
C2750      C2751   1.396       .  A
C2750      H2755   1.085       .  S
C2751      C2752   1.408       .  A
C2751      C2758   1.443       .  S
C2753      C2754   1.404       .  A
C2753      H2756   1.084       .  S
C2754      C2757   1.441       .  S
C2757      N2759   1.156       .  T
C2758      N2760   1.157   1_545  T
C2761      C2762   1.405       .  A
C2761      C2766   1.410       .  A
C2762      C2763   1.399       .  A
C2762      H2767   1.085       .  S
C2763      C2764   1.426       .  A
C2763      C2770   1.440       .  S
C2764      C2765   1.417       .  A
C2765      C2766   1.402       .  A
C2765      H2768   1.078       .  S
C2766      C2769   1.445       .  S
C2769      N2771   1.157       .  T
C2770      N2772   1.157       .  T
C2773      C2774   1.395       .  A
C2773      C2778   1.411       .  A
C2774      C2775   1.395       .  A
C2774      H2779   1.085       .  S
C2775      C2776   1.418       .  A
C2775      C2782   1.445       .  S
C2776      C2777   1.398       .  A
C2777      C2778   1.400       .  A
C2777      H2780   1.085       .  S
C2778      C2781   1.437       .  S
C2781      N2783   1.155       .  T
C2782      N2784   1.157       .  T
C2785      C2786   1.405       .  A
C2785      C2790   1.402       .  A
C2786      C2787   1.396       .  A
C2786      H2791   1.081       .  S
C2787      C2788   1.405       .  A
C2787      C2794   1.444       .  S
C2788      C2789   1.407       .  A
C2789      C2790   1.402       .  A
C2789      H2792   1.083       .  S
C2790      C2793   1.438       .  S
C2793      N2795   1.156       .  T
C2794      N2796   1.158       .  T
C2797      C2798   1.406       .  A
C2797      C2802   1.402       .  A
C2798      C2799   1.396       .  A
C2798      H2803   1.085       .  S
C2799      C2800   1.404       .  A
C2799      C2806   1.443       .  S
C2800      C2801   1.410       .  A
C2801      C2802   1.406       .  A
C2801      H2804   1.084       .  S
C2802      C2805   1.437       .  S
C2805      N2807   1.155       .  T
C2806      N2808   1.157       .  T
O2809      C2819   1.272       .  A
O2810      C2820   1.274       .  A
O2810     Cu2817   1.971       .  S
O2811      C2821   1.279       .  A
O2812      C2822   1.281       .  A
O2812     Cu2817   2.024       .  S
O2813      C2822   1.273       .  A
O2814      C2821   1.274       .  A
O2814     Cu2818   1.987       .  S
O2815      C2820   1.282       .  A
O2816      C2819   1.282       .  A
O2816     Cu2818   2.031       .  S
C2819      C3013   1.477       .  S
C2820      C2977   1.493       .  S
C2821      C2992   1.472       .  S
C2822      C3001   1.471       .  S
O2823     Cu2831   2.000       .  S
O2824     Cu3047   2.023       .  S
O2825     Cu3263   2.025       .  S
O2827      C2836   1.278       .  A
O2828      C2835   1.277       .  A
O2828     Cu3264   2.004       .  S
O2829      C2834   1.277       .  A
O2829     Cu3048   1.995   1_556  S
O2830      C2833   1.279       .  A
O2830     Cu2832   2.001   1_545  S
Cu2831     O3040   2.023   1_545  S
Cu2831     O3257   2.025   1_545  S
Cu2832     O3260   2.004       .  S
Cu2832     O3045   1.995       .  S
C2833      C2965   1.484       .  S
C2834      C2932   1.499       .  S
C2835      C2944   1.488       .  S
C2836      C2953   1.484       .  S
C2837      C2839   1.549       .  S
C2837      C2841   1.555       .  S
C2837      C2840   1.552       .  S
C2837      C2907   1.557       .  S
C2838      C2842   1.524       .  S
C2838      C2844   1.532       .  S
C2838      C2843   1.553       .  S
C2838      C2906   1.552       .  S
C2839      C2847   1.387       .  A
C2840      C2851   1.388       .  A
C2841      C2855   1.393       .  A
C2842      C2845   1.369       .  A
C2843      C2849   1.391       .  A
C2844      C2852   1.371       .  A
C2845      N2846   1.349       .  A
C2845      H2858   1.081       .  S
N2846      C2968   1.436       .  S
C2847      H2848   1.082       .  S
C2849      N2850   1.368       .  A
C2849      H2859   1.082       .  S
N2850      N2873   1.427       .  S
C2851      H2857   1.081       .  S
C2852      N2853   1.346       .  A
C2852      H2854   1.081       .  S
N2853      C2956   1.438       .  S
C2855      H2856   1.081       .  S
C2860      C2862   1.550       .  S
C2860      C2864   1.544       .  S
C2860      C2863   1.555       .  S
C2860      C2883   1.557       .  S
C2861      C2865   1.537       .  S
C2861      C2867   1.541       .  S
C2861      C2866   1.549       .  S
C2861      C2884   1.554       .  S
C2862      C2870   1.389       .  A
C2863      C2874   1.389       .  A
C2864      C2878   1.384       .  A
C2865      C2868   1.376       .  A
C2866      C2872   1.391       .  A
C2867      C2875   1.379       .  A
C2868      H2881   1.078       .  S
N2869      C2870   1.362       .  A
N2869      C2941   1.442       .  S
C2870      H2871   1.082       .  S
C2872      H2882   1.082       .  S
N2873      C2874   1.363       .  A
C2874      H2880   1.080       .  S
C2875      H2877   1.080       .  S
N2876      C2878   1.362       .  A
N2876      C2929   1.451       .  S
C2878      H2879   1.082       .  S
C2883      C2885   1.535       .  S
C2883      C2887   1.541       .  S
C2883      C2886   1.550       .  S
C2884      C2888   1.538       .  S
C2884      C2890   1.539       .  S
C2884      C2889   1.548       .  S
C2885      C2893   1.370       .  A
C2885      C2888   1.392       .  A
C2886      C2897   1.389       .  A
C2886      C2889   1.393       .  A
C2887      C2901   1.375       .  A
C2887      C2890   1.382       .  A
C2888      C2891   1.382       .  A
C2889      C2895   1.384       .  A
C2890      C2898   1.375       .  A
C2891      N2892   1.357       .  A
C2891      H2904   1.082       .  S
N2892      C2893   1.350       .  A
N2892      C2989   1.431       .  S
C2893      H2894   1.078       .  S
C2895      N2896   1.358       .  A
C2895      H2905   1.081       .  S
N2896      C2897   1.369       .  A
N2896      N3351   1.423       .  S
C2897      H2903   1.081       .  S
C2898      N2899   1.367       .  A
C2898      H2900   1.071       .  S
N2899      C2901   1.366       .  A
N2899      C2980   1.466       .  S
C2901      H2902   1.076       .  S
C2906      C2908   1.531       .  S
C2906      C2910   1.534       .  S
C2906      C2909   1.546       .  S
C2907      C2911   1.536       .  S
C2907      C2913   1.547       .  S
C2907      C2912   1.553       .  S
C2908      C2916   1.372       .  A
C2908      C2911   1.388       .  A
C2909      C2920   1.383       .  A
C2909      C2912   1.392       .  A
C2910      C2924   1.379       .  A
C2910      C2913   1.394       .  A
C2911      C2914   1.376       .  A
C2912      C2918   1.391       .  A
C2913      C2921   1.379       .  A
C2914      N2915   1.355       .  A
C2914      H2927   1.078       .  S
N2915      C2916   1.354       .  A
N2915      C3004   1.435       .  S
C2916      H2917   1.081       .  S
C2918      N2919   1.370       .  A
C2918      H2928   1.081       .  S
N2919      C2920   1.357       .  A
N2919      N3328   1.423   1_545  S
C2920      H2926   1.081       .  S
C2921      N2922   1.355       .  A
C2921      H2923   1.081       .  S
N2922      C2924   1.354       .  A
N2922      C3016   1.436       .  S
C2924      H2925   1.082       .  S
C2929      C2930   1.406       .  A
C2930      C2931   1.404       .  A
C2930      H2935   1.082       .  S
C2931      C2932   1.417       .  A
C2931      C2938   1.443       .  S
C2933      C2934   1.406       .  A
C2933      H2936   1.084       .  S
C2934      C2937   1.444       .  S
C2937      N2939   1.158       .  T
C2938      N2940   1.157       .  T
C2941      C2946   1.409       .  A
C2942      C2943   1.405       .  A
C2942      H2947   1.085       .  S
C2943      C2950   1.444       .  S
C2944      C2945   1.404       .  A
C2945      C2946   1.404       .  A
C2945      H2948   1.085       .  S
C2946      C2949   1.438       .  S
C2949      N2951   1.156       .  T
C2950      N3384   1.157       .  T
N2952      C3382   1.157       .  T
C2953      C2954   1.404       .  A
C2954      C2955   1.405       .  A
C2954      H2959   1.084       .  S
C2955      C2956   1.411       .  A
C2955      C2962   1.442       .  S
C2957      C2958   1.399       .  A
C2957      H2960   1.085       .  S
C2958      C2961   1.442       .  S
C2961      N3395   1.157   1_545  T
C2962      N2964   1.157       .  T
N2963      C3393   1.157       .  T
C2965      C2966   1.406       .  A
C2966      C2967   1.396       .  A
C2966      H2971   1.085       .  S
C2967      C2968   1.408       .  A
C2967      C2974   1.443       .  S
C2969      C2970   1.404       .  A
C2969      H2972   1.084       .  S
C2970      C2973   1.441       .  S
C2973      N2975   1.156       .  T
C2974      N2976   1.157   1_545  T
C2977      C2978   1.405       .  A
C2977      C2982   1.410       .  A
C2978      C2979   1.399       .  A
C2978      H2983   1.085       .  S
C2979      C2980   1.426       .  A
C2979      C2986   1.440       .  S
C2980      C2981   1.417       .  A
C2981      C2982   1.402       .  A
C2981      H2984   1.078       .  S
C2982      C2985   1.445       .  S
C2985      N2987   1.157       .  T
C2986      N2988   1.157       .  T
C2989      C2990   1.395       .  A
C2989      C2994   1.411       .  A
C2990      C2991   1.395       .  A
C2990      H2995   1.085       .  S
C2991      C2992   1.418       .  A
C2991      C2998   1.445       .  S
C2992      C2993   1.398       .  A
C2993      C2994   1.400       .  A
C2993      H2996   1.085       .  S
C2994      C2997   1.437       .  S
C2997      N2999   1.155       .  T
C2998      N3000   1.157       .  T
C3001      C3002   1.405       .  A
C3001      C3006   1.402       .  A
C3002      C3003   1.396       .  A
C3002      H3007   1.081       .  S
C3003      C3004   1.405       .  A
C3003      C3010   1.444       .  S
C3004      C3005   1.407       .  A
C3005      C3006   1.402       .  A
C3005      H3008   1.083       .  S
C3006      C3009   1.438       .  S
C3009      N3011   1.156       .  T
C3010      N3012   1.158       .  T
C3013      C3014   1.406       .  A
C3013      C3018   1.402       .  A
C3014      C3015   1.396       .  A
C3014      H3019   1.085       .  S
C3015      C3016   1.404       .  A
C3015      C3022   1.443       .  S
C3016      C3017   1.410       .  A
C3017      C3018   1.406       .  A
C3017      H3020   1.084       .  S
C3018      C3021   1.437       .  S
C3021      N3023   1.155       .  T
C3022      N3024   1.157       .  T
O3025      C3035   1.272       .  A
O3025     Cu3249   1.974   1_554  S
O3026      C3036   1.274       .  A
O3026     Cu3033   1.971       .  S
O3027      C3037   1.279       .  A
O3027     Cu3249   2.014   1_554  S
O3028      C3038   1.281       .  A
O3028     Cu3033   2.024       .  S
O3029      C3038   1.273       .  A
O3029     Cu3250   1.981       .  S
O3030      C3037   1.274       .  A
O3030     Cu3034   1.987       .  S
O3031      C3036   1.282       .  A
O3031     Cu3250   2.028       .  S
O3032      C3035   1.282       .  A
O3032     Cu3034   2.031       .  S
Cu3033     O3241   1.974       .  S
Cu3033     O3243   2.014       .  S
Cu3033    Cu3250   2.369       .  S
Cu3034     O3245   1.981   1_554  S
Cu3034     O3247   2.028   1_554  S
Cu3034    Cu3249   2.369   1_554  S
C3035      C3229   1.477       .  S
C3036      C3193   1.494       .  S
C3037      C3208   1.472       .  S
C3038      C3217   1.471       .  S
O3039     Cu3047   2.000   1_554  S
O3042     Cu3263   2.008       .  S
O3043      C3052   1.278       .  A
O3043     Cu3264   2.011       .  S
O3044      C3051   1.277       .  A
O3045      C3050   1.277       .  A
O3046      C3049   1.279       .  A
O3046     Cu3048   2.001       .  S
Cu3047     O3258   2.008       .  S
Cu3048     O3259   2.011   1_554  S
C3049      C3181   1.484       .  S
C3050      C3148   1.499       .  S
C3051      C3160   1.488       .  S
C3052      C3169   1.484       .  S
C3053      C3055   1.549       .  S
C3053      C3057   1.555       .  S
C3053      C3056   1.552       .  S
C3053      C3123   1.557       .  S
C3054      C3058   1.524       .  S
C3054      C3060   1.532       .  S
C3054      C3059   1.553       .  S
C3054      C3122   1.552       .  S
C3055      C3063   1.387       .  A
C3056      C3067   1.388       .  A
C3057      C3071   1.393       .  A
C3058      C3061   1.369       .  A
C3059      C3065   1.391       .  A
C3060      C3068   1.371       .  A
C3061      N3062   1.349       .  A
C3061      H3074   1.081       .  S
N3062      C3184   1.436       .  S
C3063      H3064   1.082       .  S
C3065      N3066   1.368       .  A
C3065      H3075   1.082       .  S
N3066      N3089   1.427       .  S
C3067      H3073   1.081       .  S
C3068      N3069   1.346       .  A
C3068      H3070   1.081       .  S
N3069      C3172   1.438       .  S
C3071      H3072   1.081       .  S
C3076      C3078   1.550       .  S
C3076      C3080   1.544       .  S
C3076      C3079   1.555       .  S
C3076      C3099   1.557       .  S
C3077      C3081   1.537       .  S
C3077      C3083   1.541       .  S
C3077      C3082   1.549       .  S
C3077      C3100   1.554       .  S
C3078      C3086   1.389       .  A
C3079      C3090   1.389       .  A
C3080      C3094   1.384       .  A
C3081      C3084   1.376       .  A
C3082      C3088   1.391       .  A
C3083      C3091   1.379       .  A
C3084      H3097   1.078       .  S
N3085      C3086   1.362       .  A
N3085      C3157   1.442       .  S
C3086      H3087   1.082       .  S
C3088      H3098   1.082       .  S
N3089      C3090   1.363       .  A
C3090      H3096   1.080       .  S
C3091      H3093   1.080       .  S
N3092      C3094   1.362       .  A
N3092      C3145   1.451       .  S
C3094      H3095   1.082       .  S
C3099      C3101   1.535       .  S
C3099      C3103   1.541       .  S
C3099      C3102   1.550       .  S
C3100      C3104   1.538       .  S
C3100      C3106   1.539       .  S
C3100      C3105   1.548       .  S
C3101      C3109   1.370       .  A
C3101      C3104   1.392       .  A
C3102      C3113   1.389       .  A
C3102      C3105   1.393       .  A
C3103      C3117   1.375       .  A
C3103      C3106   1.382       .  A
C3104      C3107   1.382       .  A
C3105      C3111   1.384       .  A
C3106      C3114   1.375       .  A
C3107      N3108   1.357       .  A
C3107      H3120   1.082       .  S
N3108      C3109   1.350       .  A
N3108      C3205   1.431       .  S
C3109      H3110   1.078       .  S
C3111      N3112   1.358       .  A
C3111      H3121   1.081       .  S
N3112      C3113   1.369       .  A
C3113      H3119   1.081       .  S
C3114      N3115   1.367       .  A
C3114      H3116   1.071       .  S
N3115      C3117   1.366       .  A
N3115      C3196   1.466       .  S
C3117      H3118   1.076       .  S
C3122      C3124   1.531       .  S
C3122      C3126   1.534       .  S
C3122      C3125   1.546       .  S
C3123      C3127   1.536       .  S
C3123      C3129   1.547       .  S
C3123      C3128   1.553       .  S
C3124      C3132   1.372       .  A
C3124      C3127   1.388       .  A
C3125      C3136   1.383       .  A
C3125      C3128   1.392       .  A
C3126      C3140   1.379       .  A
C3126      C3129   1.394       .  A
C3127      C3130   1.376       .  A
C3128      C3134   1.391       .  A
C3129      C3137   1.379       .  A
C3130      N3131   1.355       .  A
C3130      H3143   1.078       .  S
N3131      C3132   1.354       .  A
N3131      C3220   1.435       .  S
C3132      H3133   1.081       .  S
C3134      N3135   1.370       .  A
C3134      H3144   1.081       .  S
N3135      C3136   1.358       .  A
C3136      H3142   1.081       .  S
C3137      N3138   1.355       .  A
C3137      H3139   1.081       .  S
N3138      C3140   1.354       .  A
N3138      C3232   1.436       .  S
C3140      H3141   1.082       .  S
C3145      C3146   1.406       .  A
C3146      C3147   1.404       .  A
C3146      H3151   1.082       .  S
C3147      C3148   1.417       .  A
C3147      C3154   1.443       .  S
C3149      C3150   1.406       .  A
C3149      H3152   1.084       .  S
C3150      C3153   1.444       .  S
C3153      N3155   1.158       .  T
C3154      N3156   1.157       .  T
C3157      C3162   1.409       .  A
C3158      C3159   1.405       .  A
C3158      H3163   1.085       .  S
C3159      C3166   1.444   1_565  S
C3160      C3161   1.404       .  A
C3161      C3162   1.404       .  A
C3161      H3164   1.085       .  S
C3162      C3165   1.438       .  S
C3165      N3167   1.156       .  T
C3169      C3170   1.404       .  A
C3170      C3171   1.405       .  A
C3170      H3175   1.084       .  S
C3171      C3172   1.411       .  A
C3171      C3178   1.442       .  S
C3173      C3174   1.399       .  A
C3173      H3176   1.085       .  S
C3174      C3177   1.442       .  S
C3178      N3180   1.157       .  T
C3181      C3182   1.406       .  A
C3182      C3183   1.396       .  A
C3182      H3187   1.085       .  S
C3183      C3184   1.408       .  A
C3183      C3190   1.443       .  S
C3185      C3186   1.404       .  A
C3185      H3188   1.084       .  S
C3186      C3189   1.441       .  S
C3189      N3191   1.156       .  T
C3190      N3192   1.157       .  T
C3193      C3194   1.405       .  A
C3193      C3198   1.410       .  A
C3194      C3195   1.399       .  A
C3194      H3199   1.085       .  S
C3195      C3196   1.426       .  A
C3195      C3202   1.440       .  S
C3196      C3197   1.417       .  A
C3197      C3198   1.402       .  A
C3197      H3200   1.078       .  S
C3198      C3201   1.445       .  S
C3201      N3203   1.157       .  T
C3202      N3204   1.157       .  T
C3205      C3206   1.395       .  A
C3205      C3210   1.411       .  A
C3206      C3207   1.395       .  A
C3206      H3211   1.085       .  S
C3207      C3208   1.418       .  A
C3207      C3214   1.445       .  S
C3208      C3209   1.398       .  A
C3209      C3210   1.400       .  A
C3209      H3212   1.085       .  S
C3210      C3213   1.437       .  S
C3213      N3215   1.155       .  T
C3214      N3216   1.157       .  T
C3217      C3218   1.405       .  A
C3217      C3222   1.402       .  A
C3218      C3219   1.396       .  A
C3218      H3223   1.081       .  S
C3219      C3220   1.405       .  A
C3219      C3226   1.444       .  S
C3220      C3221   1.407       .  A
C3221      C3222   1.402       .  A
C3221      H3224   1.083       .  S
C3222      C3225   1.438       .  S
C3225      N3227   1.156       .  T
C3226      N3228   1.158       .  T
C3229      C3230   1.406       .  A
C3229      C3234   1.402       .  A
C3230      C3231   1.396       .  A
C3230      H3235   1.085       .  S
C3231      C3232   1.404       .  A
C3231      C3238   1.443       .  S
C3232      C3233   1.410       .  A
C3233      C3234   1.406       .  A
C3233      H3236   1.084       .  S
C3234      C3237   1.437       .  S
C3237      N3239   1.155       .  T
C3238      N3240   1.157       .  T
O3241      C3251   1.272       .  A
O3242      C3252   1.274       .  A
O3242     Cu3249   1.971       .  S
O3243      C3253   1.279       .  A
O3244      C3254   1.281       .  A
O3244     Cu3249   2.024       .  S
O3245      C3254   1.273       .  A
O3246      C3253   1.274       .  A
O3246     Cu3250   1.987       .  S
O3247      C3252   1.282       .  A
O3248      C3251   1.282       .  A
O3248     Cu3250   2.031       .  S
C3251      C3445   1.477       .  S
C3252      C3409   1.494       .  S
C3253      C3424   1.472       .  S
C3254      C3433   1.471       .  S
O3255     Cu3263   2.000       .  S
O3259      C3268   1.278       .  A
O3260      C3267   1.277       .  A
O3261      C3266   1.277       .  A
O3262      C3265   1.279       .  A
O3262     Cu3264   2.001       .  S
C3265      C3397   1.484       .  S
C3266      C3364   1.499       .  S
C3267      C3376   1.488       .  S
C3268      C3385   1.484       .  S
C3269      C3271   1.549       .  S
C3269      C3273   1.555       .  S
C3269      C3272   1.552       .  S
C3269      C3339   1.557       .  S
C3270      C3274   1.524       .  S
C3270      C3276   1.532       .  S
C3270      C3275   1.553       .  S
C3270      C3338   1.552       .  S
C3271      C3279   1.387       .  A
C3272      C3283   1.388       .  A
C3273      C3287   1.393       .  A
C3274      C3277   1.369       .  A
C3275      C3281   1.391       .  A
C3276      C3284   1.371       .  A
C3277      N3278   1.349       .  A
C3277      H3290   1.081       .  S
N3278      C3400   1.436       .  S
C3279      H3280   1.082       .  S
C3281      N3282   1.368       .  A
C3281      H3291   1.082       .  S
N3282      N3305   1.427       .  S
C3283      H3289   1.081       .  S
C3284      N3285   1.346       .  A
C3284      H3286   1.081       .  S
N3285      C3388   1.438       .  S
C3287      H3288   1.081       .  S
C3292      C3294   1.550       .  S
C3292      C3296   1.544       .  S
C3292      C3295   1.555       .  S
C3292      C3315   1.557       .  S
C3293      C3297   1.537       .  S
C3293      C3299   1.541       .  S
C3293      C3298   1.549       .  S
C3293      C3316   1.554       .  S
C3294      C3302   1.389       .  A
C3295      C3306   1.389       .  A
C3296      C3310   1.384       .  A
C3297      C3300   1.376       .  A
C3298      C3304   1.391       .  A
C3299      C3307   1.379       .  A
C3300      H3313   1.078       .  S
N3301      C3302   1.362       .  A
N3301      C3373   1.442       .  S
C3302      H3303   1.082       .  S
C3304      H3314   1.082       .  S
N3305      C3306   1.363       .  A
C3306      H3312   1.080       .  S
C3307      H3309   1.080       .  S
N3308      C3310   1.362       .  A
N3308      C3361   1.451       .  S
C3310      H3311   1.082       .  S
C3315      C3317   1.535       .  S
C3315      C3319   1.541       .  S
C3315      C3318   1.550       .  S
C3316      C3320   1.538       .  S
C3316      C3322   1.539       .  S
C3316      C3321   1.548       .  S
C3317      C3325   1.370       .  A
C3317      C3320   1.392       .  A
C3318      C3329   1.389       .  A
C3318      C3321   1.393       .  A
C3319      C3333   1.375       .  A
C3319      C3322   1.382       .  A
C3320      C3323   1.382       .  A
C3321      C3327   1.384       .  A
C3322      C3330   1.375       .  A
C3323      N3324   1.357       .  A
C3323      H3336   1.082       .  S
N3324      C3325   1.350       .  A
N3324      C3421   1.431       .  S
C3325      H3326   1.078       .  S
C3327      N3328   1.358       .  A
C3327      H3337   1.081       .  S
N3328      C3329   1.369       .  A
C3329      H3335   1.081       .  S
C3330      N3331   1.367       .  A
C3330      H3332   1.071       .  S
N3331      C3333   1.366       .  A
N3331      C3412   1.466       .  S
C3333      H3334   1.076       .  S
C3338      C3340   1.531       .  S
C3338      C3342   1.534       .  S
C3338      C3341   1.546       .  S
C3339      C3343   1.536       .  S
C3339      C3345   1.547       .  S
C3339      C3344   1.553       .  S
C3340      C3348   1.372       .  A
C3340      C3343   1.388       .  A
C3341      C3352   1.383       .  A
C3341      C3344   1.392       .  A
C3342      C3356   1.379       .  A
C3342      C3345   1.394       .  A
C3343      C3346   1.376       .  A
C3344      C3350   1.391       .  A
C3345      C3353   1.379       .  A
C3346      N3347   1.355       .  A
C3346      H3359   1.078       .  S
N3347      C3348   1.354       .  A
N3347      C3436   1.435       .  S
C3348      H3349   1.081       .  S
C3350      N3351   1.370       .  A
C3350      H3360   1.081       .  S
N3351      C3352   1.358       .  A
C3352      H3358   1.081       .  S
C3353      N3354   1.355       .  A
C3353      H3355   1.081       .  S
N3354      C3356   1.354       .  A
N3354      C3448   1.436       .  S
C3356      H3357   1.082       .  S
C3361      C3362   1.406       .  A
C3362      C3363   1.404       .  A
C3362      H3367   1.082       .  S
C3363      C3364   1.417       .  A
C3363      C3370   1.443       .  S
C3365      C3366   1.406       .  A
C3365      H3368   1.084       .  S
C3366      C3369   1.444       .  S
C3369      N3371   1.158       .  T
C3370      N3372   1.157       .  T
C3373      C3378   1.409       .  A
C3374      C3375   1.405       .  A
C3374      H3379   1.085       .  S
C3375      C3382   1.444   1_565  S
C3376      C3377   1.404       .  A
C3377      C3378   1.404       .  A
C3377      H3380   1.085       .  S
C3378      C3381   1.438       .  S
C3381      N3383   1.156       .  T
C3385      C3386   1.404       .  A
C3386      C3387   1.405       .  A
C3386      H3391   1.084       .  S
C3387      C3388   1.411       .  A
C3387      C3394   1.442       .  S
C3389      C3390   1.399       .  A
C3389      H3392   1.085       .  S
C3390      C3393   1.442       .  S
C3394      N3396   1.157       .  T
C3397      C3398   1.406       .  A
C3398      C3399   1.396       .  A
C3398      H3403   1.085       .  S
C3399      C3400   1.408       .  A
C3399      C3406   1.443       .  S
C3401      C3402   1.404       .  A
C3401      H3404   1.084       .  S
C3402      C3405   1.441       .  S
C3405      N3407   1.156       .  T
C3406      N3408   1.157       .  T
C3409      C3410   1.405       .  A
C3409      C3414   1.410       .  A
C3410      C3411   1.399       .  A
C3410      H3415   1.085       .  S
C3411      C3412   1.426       .  A
C3411      C3418   1.440       .  S
C3412      C3413   1.417       .  A
C3413      C3414   1.402       .  A
C3413      H3416   1.078       .  S
C3414      C3417   1.445       .  S
C3417      N3419   1.157       .  T
C3418      N3420   1.157       .  T
C3421      C3422   1.395       .  A
C3421      C3426   1.411       .  A
C3422      C3423   1.395       .  A
C3422      H3427   1.085       .  S
C3423      C3424   1.418       .  A
C3423      C3430   1.445       .  S
C3424      C3425   1.398       .  A
C3425      C3426   1.400       .  A
C3425      H3428   1.085       .  S
C3426      C3429   1.437       .  S
C3429      N3431   1.155       .  T
C3430      N3432   1.157       .  T
C3433      C3434   1.405       .  A
C3433      C3438   1.402       .  A
C3434      C3435   1.396       .  A
C3434      H3439   1.081       .  S
C3435      C3436   1.405       .  A
C3435      C3442   1.444       .  S
C3436      C3437   1.407       .  A
C3437      C3438   1.402       .  A
C3437      H3440   1.083       .  S
C3438      C3441   1.438       .  S
C3441      N3443   1.156       .  T
C3442      N3444   1.158       .  T
C3445      C3446   1.406       .  A
C3445      C3450   1.402       .  A
C3446      C3447   1.396       .  A
C3446      H3451   1.085       .  S
C3447      C3448   1.404       .  A
C3447      C3454   1.443       .  S
C3448      C3449   1.410       .  A
C3449      C3450   1.406       .  A
C3449      H3452   1.084       .  S
C3450      C3453   1.437       .  S
C3453      N3455   1.155       .  T
C3454      N3456   1.157       .  T
