geometry optimzed in LAMMPS
_audit_creation_date              2020-12-01 
_audit_creation_method            'lammps2cif' 
_symmetry_space_group_name_H-M    'P1' 
_symmetry_Int_Tables_number       1 
_symmetry_cell_setting            triclinic 
loop_ 
_symmetry_equiv_pos_as_xyz 
  x,y,z 
_cell_length_a                    40.24517192 
_cell_length_b                    40.789320362703215 
_cell_length_c                    40.14212428409341 
_cell_angle_alpha                 91.92144561667632 
_cell_angle_beta                  90.06797876003935 
_cell_angle_gamma                 91.21169696232134 
loop_ 
_atom_site_label 
_atom_site_type_symbol 
_atom_site_fract_x 
_atom_site_fract_y 
_atom_site_fract_z 
_atom_site_charge 
C1          C  0.59026422  0.86468883  0.71213450     0.02800
C2          C  0.59565364  0.89675169  0.72456187    -0.13400
C3          C  0.56884861  0.91506412  0.73651039     0.00300
C4          C  0.53688771  0.90043400  0.73777189    -0.11900
C5          C  0.53102790  0.86848342  0.72427672     0.02800
C6          C  0.55798842  0.85116674  0.71096413    -0.11300
H7          H  0.62034175  0.90783700  0.72374201     0.08400
H8          H  0.51643411  0.91451467  0.74774855     0.05900
H9          H  0.55392961  0.82689673  0.69965803     0.05800
C10         C  0.59708140  0.11075694  0.75718267     0.02800
C11         C  0.60164365  0.07674596  0.75407728    -0.13400
C12         C  0.57504650  0.05490988  0.76002427     0.00300
C13         C  0.54370316  0.06715905  0.76832773    -0.11900
C14         C  0.53867992  0.10103880  0.77064787     0.02800
C15         C  0.56567117  0.12264386  0.76627782    -0.11300
H16         H  0.62534002  0.06731283  0.74585948     0.08400
H17         H  0.52275618  0.05031789  0.77107787     0.05900
H18         H  0.56167637  0.14886075  0.76761721     0.05800
C19         C  0.89548874  0.77486955  0.55136222     0.02800
C20         C  0.92931685  0.77462026  0.56009170    -0.13400
C21         C  0.95356791  0.77327137  0.53497795     0.00300
C22         C  0.94361476  0.77075612  0.50144891    -0.11900
C23         C  0.90984675  0.77164157  0.49270790     0.02800
C24         C  0.88617051  0.77552916  0.51783230    -0.11300
H25         H  0.93658216  0.77370482  0.58603485     0.08400
H26         H  0.96221847  0.76751685  0.48217708     0.05900
H27         H  0.86001498  0.77572138  0.51132594     0.05800
C28         C  0.15302189  0.78745224  0.55496549     0.02800
C29         C  0.11932720  0.78384708  0.56356002    -0.13400
C30         C  0.09579720  0.77463638  0.53882360     0.00300
C31         C  0.10645743  0.76807457  0.50600501    -0.11900
C32         C  0.13984164  0.77267804  0.49709643     0.02800
C33         C  0.16286527  0.78249895  0.52173581    -0.11300
H34         H  0.11145492  0.78864892  0.58902337     0.08400
H35         H  0.08839063  0.76070187  0.48699506     0.05900
H36         H  0.18865871  0.78668662  0.51499474     0.05800
C37         C  0.66939204  0.76355188  0.38143034     0.02800
C38         C  0.67728686  0.76185793  0.41527956    -0.13400
C39         C  0.65246756  0.76492220  0.43932816     0.00300
C40         C  0.62000298  0.77140746  0.42954041    -0.11900
C41         C  0.61175029  0.77233396  0.39568451     0.02800
C42         C  0.63656845  0.76877648  0.37149413    -0.11300
H43         H  0.70222296  0.75556334  0.42267847     0.08400
H44         H  0.60052034  0.77261140  0.44817030     0.05900
H45         H  0.63008175  0.76801320  0.34526709     0.05800
C46         C  0.41418463  0.75693750  0.40010073     0.02800
C47         C  0.44622302  0.76035882  0.38704635    -0.13400
C48         C  0.47373793  0.75943825  0.40828038     0.00300
C49         C  0.46925237  0.75457890  0.44248200    -0.11900
C50         C  0.43714493  0.75187037  0.45571668     0.02800
C51         C  0.40975638  0.75268209  0.43423278    -0.11300
H52         H  0.44967117  0.76491226  0.36081515     0.08400
H53         H  0.49064715  0.75418252  0.45888074     0.05900
H54         H  0.38478728  0.75181336  0.44435493     0.05800
C55         C  0.75447242  0.58009682  0.84002674     0.02800
C56         C  0.76517222  0.58317552  0.87299884    -0.13400
C57         C  0.77563606  0.55553222  0.88906757     0.00300
C58         C  0.77455477  0.52472252  0.87277446    -0.11900
C59         C  0.76261470  0.52147506  0.84012435     0.02800
C60         C  0.75319721  0.54927907  0.82350286    -0.11300
H61         H  0.76555267  0.60692312  0.88598807     0.08400
H62         H  0.78174151  0.50317067  0.88591620     0.05900
H63         H  0.74399040  0.54685277  0.79811941     0.05800
C64         C  0.83144373  0.56201464  0.07879530     0.02800
C65         C  0.82944516  0.56880373  0.04493974    -0.13400
C66         C  0.81841692  0.54433260  0.02218863     0.00300
C67         C  0.81206260  0.51249000  0.03249023    -0.11900
C68         C  0.81468855  0.50544261  0.06602258     0.02800
C69         C  0.82396588  0.53023550  0.08927146    -0.11300
H70         H  0.83416866  0.59349919  0.03668339     0.08400
H71         H  0.80322013  0.49367560  0.01469464     0.05900
H72         H  0.82466364  0.52495043  0.11555307     0.05800
O73         O  0.68668860  0.23672338  0.71146129    -0.81200
O74         O  0.72588710  0.38167348  0.76332399    -0.65900
O75         O  0.72250310  0.29055311  0.73783039    -1.12500
C76         C  0.67850728  0.28497221  0.84875087     1.05700
O77         O  0.75418899  0.36844438  0.80750045    -0.79100
O78         O  0.76007349  0.30831664  0.83040984    -0.66700
Ni79       Ni  0.70016321  0.27924631  0.69659191     1.34900
C80         C  0.76386330  0.27992634  0.81752021     0.84400
O81         O  0.74409690  0.34921963  0.70849310    -0.79700
O82         O  0.71142203  0.31964165  0.67420341    -0.89900
C83         C  0.74252583  0.39001230  0.78907793     0.84000
O84         O  0.65961609  0.29686632  0.71311774    -0.68100
O85         O  0.69718458  0.31013923  0.85494611    -0.87400
C86         C  0.65497611  0.32629138  0.72317447     0.84800
C87         C  0.73175212  0.34350935  0.67987487     1.06400
H88         H  0.68224688  0.33130989  0.79118251     0.38200
O89         O  0.70461219  0.32360454  0.78974069    -1.10100
O90         O  0.74276132  0.26586709  0.79772094    -0.66700
Ni91       Ni  0.70040712  0.27845244  0.77901753     1.26300
O92         O  0.67921744  0.34529891  0.73247743    -0.67000
O93         O  0.67758725  0.26959327  0.82038096    -0.79300
C94         C  0.68432911  0.22116973  0.73828133     0.84200
O95         O  0.69367201  0.23335384  0.76635476    -0.66400
Ni96       Ni  0.72529628  0.33862988  0.82999196     1.27400
Ni97       Ni  0.72395853  0.33667348  0.74910544     1.26100
H98         H  0.74484316  0.28234138  0.73701492     0.38700
O99         O  0.35304655  0.78119731  0.57852452    -0.81200
O100        O  0.29709721  0.83729055  0.71053632    -0.65900
O101        O  0.35502139  0.81656017  0.63870239    -1.12500
C102        C  0.37496030  0.71795493  0.68862685     1.05700
O103        O  0.31687744  0.80425088  0.74895926    -0.79100
O104        O  0.38047566  0.80325176  0.72588415    -0.66700
Ni105      Ni  0.34361911  0.82511976  0.59395043     1.34900
C106        C  0.40307721  0.80277112  0.70382560     0.84400
O107        O  0.32277582  0.87236885  0.66136680    -0.79700
O108        O  0.33407087  0.86962837  0.60634957    -0.89900
C109        C  0.29858913  0.82743112  0.74011555     0.84000
O110        O  0.29759183  0.81397886  0.59549128    -0.68100
O111        O  0.37355852  0.73647801  0.71466579    -0.87400
C112        C  0.27677567  0.81315276  0.61910917     0.84800
C113        C  0.32640613  0.88556162  0.63306850     1.06400
H114        H  0.30922911  0.76929377  0.67979388     0.38200
O115        O  0.32970771  0.78139359  0.68436730    -1.10100
O116        O  0.39994896  0.78663012  0.67601607    -0.66700
Ni117      Ni  0.36100500  0.77224932  0.64961996     1.26300
O118        O  0.28471622  0.81686761  0.64968672    -0.67000
O119        O  0.36555343  0.72748373  0.66056746    -0.79300
C120        C  0.38092113  0.76845706  0.58396378     0.84200
O121        O  0.39095362  0.76510897  0.61348637    -0.66400
Ni122      Ni  0.34482848  0.77195335  0.72839400     1.27400
Ni123      Ni  0.32538096  0.82718009  0.67378161     1.26100
H124        H  0.37558551  0.82856347  0.64275755     0.38700
C125        C  0.13319628  0.62386203  0.22292245     0.02800
C126        C  0.13648632  0.59030674  0.21509446    -0.13400
C127        C  0.10787232  0.57059944  0.20959945     0.00300
C128        C  0.07635795  0.58441893  0.21129459    -0.11900
C129        C  0.07309952  0.61767202  0.21930671     0.02800
C130        C  0.10143492  0.63734427  0.22506638    -0.11300
H131        H  0.16084688  0.57950534  0.21429815     0.08400
H132        H  0.05428361  0.56892571  0.20797727     0.05900
H133        H  0.09874067  0.66303308  0.23220353     0.05800
C134        C  0.09840443  0.37609710  0.18840745     0.02800
C135        C  0.06467557  0.36717049  0.18706013    -0.13400
C136        C  0.04043262  0.39106731  0.18953431     0.00300
C137        C  0.05008117  0.42432775  0.19165337    -0.11900
C138        C  0.08398473  0.43329025  0.19198722     0.02800
C139        C  0.10806722  0.40915309  0.19069016    -0.11300
H140        H  0.05729049  0.34142484  0.18585647     0.08400
H141        H  0.03141122  0.44304335  0.19376139     0.05900
H142        H  0.13418438  0.41604766  0.19260872     0.05800
O143        O  0.94626394  0.70199932  0.25714479    -0.81200
O144        O  0.80458013  0.73895990  0.30117391    -0.65900
O145        O  0.88573847  0.69415827  0.29083008    -1.12500
C146        C  0.84301921  0.65114350  0.19059444     1.05700
O147        O  0.77192017  0.70159688  0.27497941    -0.79100
O148        O  0.80576628  0.64598737  0.27348395    -0.66700
Ni149      Ni  0.92743945  0.71619756  0.29889793     1.34900
C150        C  0.83121341  0.62837223  0.27554191     0.84400
O151        O  0.85662055  0.73299049  0.34054467    -0.79700
O152        O  0.91254486  0.73191096  0.34146757    -0.89900
C153        C  0.77643251  0.72549144  0.29560738     0.84000
O154        O  0.91728806  0.75647065  0.27935418    -0.68100
O155        O  0.81543423  0.65205027  0.20593505    -0.87400
C156        C  0.89048457  0.77085766  0.27328965     0.84800
C157        C  0.88464317  0.73781218  0.35504106     1.06400
H158        H  0.83823675  0.72037742  0.23588710     0.38200
O159        O  0.83717667  0.70232157  0.25085496    -1.10100
O160        O  0.85916165  0.63705737  0.26308535    -0.66700
Ni161      Ni  0.87748442  0.67838809  0.24661326     1.26300
O162        O  0.86186154  0.75871235  0.27886564    -0.67000
O163        O  0.86936094  0.66468390  0.20189240    -0.79300
C164        C  0.94570586  0.67243084  0.24662838     0.84200
O165        O  0.91862728  0.65636590  0.24398385    -0.66400
Ni166      Ni  0.79672242  0.67820406  0.24171977     1.27400
Ni167      Ni  0.84584155  0.71784099  0.29597270     1.26100
H168        H  0.88452937  0.67613113  0.30575985     0.38700
C169        C  0.86774950  0.24078299  0.89994702     0.02800
C170        C  0.90212871  0.23771273  0.89631662    -0.13400
C171        C  0.92285986  0.24011567  0.92432899     0.00300
C172        C  0.90926622  0.24531784  0.95608202    -0.11900
C173        C  0.87473616  0.24608956  0.96046730     0.02800
C174        C  0.85410212  0.24331874  0.93217709    -0.11300
H175        H  0.91284294  0.23447731  0.87169443     0.08400
H176        H  0.92566694  0.24817018  0.97747094     0.05900
H177        H  0.82739005  0.24443716  0.93511862     0.05800
C178        C  0.11868414  0.21515037  0.89710986     0.02800
C179        C  0.08463912  0.22049625  0.89264341    -0.13400
C180        C  0.06362310  0.22270241  0.92049308     0.00300
C181        C  0.07651079  0.21963609  0.95256970    -0.11900
C182        C  0.11030300  0.21443562  0.95714812     0.02800
C183        C  0.13137226  0.21208105  0.92945530    -0.11300
H184        H  0.07466430  0.22319857  0.86782730     0.08400
H185        H  0.06018734  0.22131409  0.97401214     0.05900
H186        H  0.15768980  0.20827709  0.93308559     0.05800
O187        O  0.79613383  0.38690523  0.15479304    -0.81200
O188        O  0.85642255  0.26778830  0.21489976    -0.65900
O189        O  0.83842387  0.33685769  0.15658476    -1.12500
C190        C  0.74407080  0.26944908  0.12646227     1.05700
O191        O  0.84757701  0.23455020  0.17172106    -0.79100
O192        O  0.81778006  0.24465510  0.11301654    -0.66700
Ni193      Ni  0.84066058  0.38165667  0.16936409     1.34900
C194        C  0.82473679  0.26868515  0.09489712     0.84400
O195        O  0.89070166  0.32396064  0.19835141    -0.79700
O196        O  0.88556308  0.37696194  0.18358917    -0.89900
C197        C  0.85844994  0.23932099  0.20122233     0.84000
O198        O  0.82510423  0.37857636  0.21346617    -0.68100
O199        O  0.75758054  0.24670316  0.14260590    -0.87400
C200        C  0.82083992  0.35554074  0.23342891     0.84800
C201        C  0.90249242  0.35293935  0.19340651     1.06400
H202        H  0.78932416  0.28936434  0.19062025     0.38200
O203        O  0.80517828  0.28653705  0.17274968    -1.10100
O204        O  0.82068005  0.29818587  0.10464329    -0.66700
Ni205      Ni  0.79694484  0.31868655  0.14082805     1.26300
O206        O  0.82760606  0.32570757  0.22614624    -0.67000
O207        O  0.75654382  0.29835437  0.12456583    -0.79300
C208        C  0.79081845  0.38245277  0.12391379     0.84200
O209        O  0.79015297  0.35359850  0.11143577    -0.66400
Ni210      Ni  0.80256469  0.24180630  0.15799192     1.27400
Ni211      Ni  0.84775551  0.30422410  0.18722002     1.26100
H212        H  0.85460026  0.33449131  0.13895638     0.38700
C213        C  0.43797590  0.21852650  0.02743541     0.02800
C214        C  0.41819389  0.21194776  0.05538982    -0.13400
C215        C  0.38372588  0.20693019  0.05151210     0.00300
C216        C  0.36926149  0.20883520  0.01986179    -0.11900
C217        C  0.38889991  0.21490371  0.99193437     0.02800
C218        C  0.42323909  0.21970713  0.99582592    -0.11300
H219        H  0.42952842  0.21034297  0.07975634     0.08400
H220        H  0.34269589  0.20476899  0.01683617     0.05900
H221        H  0.43855760  0.22428919  0.97420139     0.05800
C222        C  0.63603848  0.24942330  0.03294885     0.02800
C223        C  0.60278041  0.24212649  0.04077025    -0.13400
C224        C  0.57873064  0.23958206  0.01545398     0.00300
C225        C  0.58804486  0.24386312  0.98217016    -0.11900
C226        C  0.62119957  0.25105163  0.97414748     0.02800
C227        C  0.64508508  0.25395161  0.99960253    -0.11300
H228        H  0.59556058  0.23894548  0.06648120     0.08400
H229        H  0.56936942  0.24244945  0.96266404     0.05900
H230        H  0.67064165  0.26016624  0.99352363     0.05800
C231        C  0.22956642  0.90761158  0.83628947     0.02800
C232        C  0.23007708  0.90616615  0.87109644    -0.13400
C233        C  0.22735813  0.93502495  0.89076904     0.00300
C234        C  0.22603568  0.96534671  0.87535977    -0.11900
C235        C  0.22388874  0.96686087  0.84042167     0.02800
C236        C  0.22220029  0.93724917  0.82155821    -0.11300
H237        H  0.23531359  0.88323144  0.88272542     0.08400
H238        H  0.22819219  0.98764550  0.89068105     0.05900
H239        H  0.21996838  0.93770443  0.79469613     0.05800
C240        C  0.24297520  0.90244770  0.08524249     0.02800
C241        C  0.23828040  0.93183798  0.10333879    -0.13400
C242        C  0.23277088  0.96074264  0.08695913     0.00300
C243        C  0.23112024  0.96011754  0.05207128    -0.11900
C244        C  0.23493665  0.93051644  0.03379690     0.02800
C245        C  0.24110154  0.90155434  0.05041693    -0.11300
H246        H  0.23906324  0.93220507  0.13037118     0.08400
H247        H  0.22675515  0.98256115  0.03917355     0.05900
H248        H  0.24441567  0.87866845  0.03644525     0.05800
O249        O  0.25497567  0.22081502  0.82708042    -0.81200
O250        O  0.39171105  0.16692854  0.79646650    -0.65900
O251        O  0.30545993  0.20166663  0.78413640    -1.12500
C252        C  0.27016436  0.09103241  0.79510312     1.05700
O253        O  0.38131655  0.12663353  0.76003962    -0.79100
O254        O  0.32073594  0.12017442  0.73181671    -0.66700
Ni255      Ni  0.29325227  0.24111188  0.80708204     1.34900
C256        C  0.29529748  0.13612584  0.72395044     0.84400
O257        O  0.37082005  0.22644463  0.78324058    -0.79700
O258        O  0.33096188  0.26419932  0.78869998    -0.89900
C259        C  0.40186611  0.14361396  0.77773788     0.84000
O260        O  0.31605865  0.23606792  0.84827733    -0.68100
O261        O  0.29942174  0.08530726  0.78475549    -0.87400
C262        C  0.33679286  0.21542596  0.85787803     0.84800
C263        C  0.36066984  0.25572420  0.78196542     1.06400
H264        H  0.32789921  0.13974892  0.82117608     0.38200
O265        O  0.32553924  0.14529414  0.79814458    -1.10100
O266        O  0.27789873  0.15234299  0.74507498    -0.66700
Ni267      Ni  0.28160299  0.16165937  0.79276436     1.26300
O268        O  0.34964552  0.19409893  0.83833331    -0.67000
O269        O  0.25961669  0.12003565  0.80091085    -0.79300
C270        C  0.23168525  0.20425069  0.81270117     0.84200
O271        O  0.23861861  0.18175035  0.79116429    -0.66400
Ni272      Ni  0.33925214  0.10798801  0.77308193     1.27400
Ni273      Ni  0.34884633  0.18548282  0.79093668     1.26100
H274        H  0.30353217  0.20592237  0.76068759     0.38700
C275        C  0.27316390  0.05842436  0.34623932     0.02800
C276        C  0.27658366  0.06379793  0.38070926    -0.13400
C277        C  0.27946132  0.03705301  0.40154265     0.00300
C278        C  0.28031429  0.00494653  0.38737088    -0.11900
C279        C  0.27578058  0.99938801  0.35272818     0.02800
C280        C  0.27183386  0.02646269  0.33269773    -0.11300
H281        H  0.27556036  0.08851418  0.39138395     0.08400
H282        H  0.28321899  0.98438647  0.40343225     0.05900
H283        H  0.26668271  0.02267757  0.30630292     0.05800
C284        C  0.27914739  0.07226068  0.60166375     0.02800
C285        C  0.28741716  0.04186543  0.61428981    -0.13400
C286        C  0.29087450  0.01427256  0.59315577     0.00300
C287        C  0.28617179  0.01725912  0.55873321    -0.11900
C288        C  0.27895494  0.04776114  0.54540735     0.02800
C289        C  0.27512290  0.07536493  0.56705207    -0.11300
H290        H  0.29182192  0.03984580  0.64080275     0.08400
H291        H  0.28938697  0.99605495  0.54212817     0.05900
H292        H  0.26992563  0.09905599  0.55705119     0.05800
O293        O  0.19987050  0.18943660  0.08200732    -0.81200
O294        O  0.25056218  0.14369259  0.21638993    -0.65900
O295        O  0.19504191  0.15900573  0.14213436    -1.12500
C296        C  0.17956937  0.26343910  0.19154403     1.05700
O297        O  0.21942973  0.17093186  0.25307617    -0.79100
O298        O  0.16132625  0.18798540  0.22874248    -0.66700
Ni299      Ni  0.20777308  0.14679916  0.09798761     1.34900
C300        C  0.14063899  0.18451541  0.20496892     0.84400
O301        O  0.22705126  0.10513103  0.16648539    -0.79700
O302        O  0.21536531  0.10336055  0.11144022    -0.89900
C303        C  0.24003418  0.14882426  0.24578079     0.84000
O304        O  0.25361102  0.15839355  0.10118156    -0.68100
O305        O  0.18765603  0.25007983  0.21832934    -0.87400
C306        C  0.27328013  0.16431944  0.12535488     0.84800
C307        C  0.22158716  0.08967910  0.13876265     1.06400
H308        H  0.23873815  0.20891737  0.18464359     0.38200
O309        O  0.21821764  0.19700228  0.18861622    -1.10100
O310        O  0.14800600  0.19280627  0.17558732    -0.66700
Ni311      Ni  0.18832010  0.20424753  0.15213238     1.26300
O312        O  0.26494583  0.16187087  0.15573653    -0.67000
O313        O  0.18180057  0.24925711  0.16305555    -0.79300
C314        C  0.17144941  0.20178949  0.08507079     0.84200
O315        O  0.16029388  0.20894372  0.11386446    -0.66400
Ni316      Ni  0.20399545  0.20933488  0.23260277     1.27400
Ni317      Ni  0.22381915  0.15105987  0.17826806     1.26100
H318        H  0.17464397  0.14691977  0.14617432     0.38700
C319        C  0.95469761  0.88774425  0.24483072     0.02800
C320        C  0.94814917  0.92134841  0.24463001    -0.13400
C321        C  0.97449870  0.94433583  0.24369818     0.00300
C322        C  0.00742192  0.93370513  0.24150102    -0.11900
C323        C  0.01431828  0.90016891  0.24168689     0.02800
C324        C  0.98783128  0.87743411  0.24380710    -0.11300
H325        H  0.92274787  0.92962751  0.24539164     0.08400
H326        H  0.02765231  0.95157026  0.24009279     0.05900
H327        H  0.99303931  0.85150402  0.24473826     0.05800
C328        C  0.94880458  0.13915044  0.23706129     0.02800
C329        C  0.94423238  0.10582411  0.24441423    -0.13400
C330        C  0.97118494  0.08450685  0.24268950     0.00300
C331        C  0.00321386  0.09698643  0.23649187    -0.11900
C332        C  0.00822824  0.13032097  0.23064288     0.02800
C333        C  0.98099506  0.15100331  0.22996640    -0.11300
H334        H  0.91967431  0.09617275  0.25004214     0.08400
H335        H  0.02410722  0.08063618  0.23549135     0.05900
H336        H  0.98492220  0.17644639  0.22372474     0.05800
O337        O  0.13289646  0.80737145  0.26260990    -0.81200
O338        O  0.27204854  0.76762540  0.32263323    -0.65900
O339        O  0.19181618  0.80922480  0.29949313    -1.12500
C340        C  0.25094914  0.83054023  0.19929448     1.05700
O341        O  0.30303570  0.80844447  0.30354229    -0.79100
O342        O  0.28056609  0.85862483  0.27080474    -0.66700
Ni343      Ni  0.15167864  0.78416188  0.29925695     1.34900
C344        C  0.25539469  0.87332908  0.28246998     0.84400
O345        O  0.21450127  0.78003962  0.35485884    -0.79700
O346        O  0.16533761  0.75982507  0.33736729    -0.89900
C347        C  0.29918028  0.78397822  0.32193328     0.84000
O348        O  0.16932982  0.75247670  0.26889956    -0.68100
O349        O  0.27652715  0.81910016  0.21302147    -0.87400
C350        C  0.19400781  0.73461862  0.27458204     0.84800
C351        C  0.18547348  0.76866910  0.36068621     1.06400
H352        H  0.24249382  0.77656988  0.25281398     0.38200
O353        O  0.24457454  0.79624878  0.26676762    -1.10100
O354        O  0.22605884  0.86136944  0.27986901    -0.66700
Ni355      Ni  0.20746692  0.82277082  0.25743459     1.26300
O356        O  0.21664025  0.74331274  0.29549587    -0.67000
O357        O  0.22397608  0.83600146  0.21500883    -0.79300
C358        C  0.13923044  0.83616224  0.25260062     0.84200
O359        O  0.16869514  0.84770830  0.25046886    -0.66400
Ni360      Ni  0.28797587  0.81349273  0.25876582     1.27400
Ni361      Ni  0.23105257  0.78703420  0.31112932     1.26100
H362        H  0.18879754  0.82790111  0.31443608     0.38700
C363        C  0.45913963  0.35131821  0.74171092     0.02800
C364        C  0.45060697  0.38424693  0.73884177    -0.13400
C365        C  0.47478446  0.40779990  0.73077080     0.00300
C366        C  0.50777502  0.39839357  0.72565899    -0.11900
C367        C  0.51673289  0.36558035  0.72893556     0.02800
C368        C  0.49220347  0.34204382  0.73646221    -0.11300
H369        H  0.42529591  0.39167479  0.74358189     0.08400
H370        H  0.52665926  0.41677075  0.72018059     0.05900
H371        H  0.49902125  0.31671365  0.73925523     0.05800
C372        C  0.44738677  0.60157105  0.71234962     0.02800
C373        C  0.43923428  0.56834817  0.71718791    -0.13400
C374        C  0.46405405  0.54690645  0.72725956     0.00300
C375        C  0.49667008  0.55884317  0.73259619    -0.11900
C376        C  0.50513097  0.59137058  0.72593129     0.02800
C377        C  0.48022759  0.61262717  0.71683472    -0.11300
H378        H  0.41416716  0.55914261  0.71247098     0.08400
H379        H  0.51593182  0.54217264  0.73953806     0.05900
H380        H  0.48673769  0.63791237  0.71173238     0.05800
C381        C  0.80379865  0.44544090  0.33912892     0.02800
C382        C  0.81072531  0.47561428  0.32438010    -0.13400
C383        C  0.81174139  0.50505035  0.34358132     0.00300
C384        C  0.80628595  0.50407180  0.37814431    -0.11900
C385        C  0.79952890  0.47401302  0.39333705     0.02800
C386        C  0.79814991  0.44481499  0.37364017    -0.11300
H387        H  0.81492207  0.47624439  0.29773311     0.08400
H388        H  0.80676338  0.52668688  0.39311030     0.05900
H389        H  0.79250347  0.42169152  0.38512846     0.05800
C390        C  0.76136571  0.44616219  0.58791762     0.02800
C391        C  0.76867668  0.44450715  0.55362819    -0.13400
C392        C  0.77275019  0.47348359  0.53576048     0.00300
C393        C  0.76950962  0.50407889  0.55270084    -0.11900
C394        C  0.76197104  0.50588915  0.58695282     0.02800
C395        C  0.75807035  0.47683651  0.60429174    -0.11300
H396        H  0.77054754  0.42082387  0.54080051     0.08400
H397        H  0.77215607  0.52647396  0.53907420     0.05900
H398        H  0.75153990  0.47806499  0.63049653     0.05800
O399        O  0.61313506  0.68207553  0.66822193    -0.81200
O400        O  0.75341508  0.74208720  0.62190388    -0.65900
O401        O  0.67727423  0.68746475  0.63848360    -1.12500
C402        C  0.72763117  0.66489270  0.73854665     1.05700
O403        O  0.79002665  0.71319441  0.64973906    -0.79100
O404        O  0.76133737  0.65348070  0.65249311    -0.66700
Ni405      Ni  0.63351910  0.70307877  0.63065771     1.34900
C406        C  0.73748932  0.63267872  0.65296182     0.84400
O407        O  0.70234899  0.72146913  0.58530329    -0.79700
O408        O  0.64720291  0.72483885  0.59099470    -0.89900
C409        C  0.78295506  0.73376593  0.62803061     0.84000
O410        O  0.64052703  0.74145528  0.65748978    -0.68100
O411        O  0.75311751  0.66371745  0.72001433    -0.87400
C412        C  0.66448285  0.76208308  0.65747226     0.84800
C413        C  0.67375755  0.72713351  0.57395934     1.06400
H414        H  0.72417181  0.72806212  0.68915052     0.38200
O415        O  0.72604213  0.70822652  0.67550669    -1.10100
O416        O  0.71026936  0.63892666  0.66810096    -0.66700
Ni417      Ni  0.68890255  0.67974129  0.68320737     1.26300
O418        O  0.69287003  0.75621522  0.64458655    -0.67000
O419        O  0.70026555  0.67502288  0.72835977    -0.79300
C420        C  0.62194946  0.65863242  0.68603579     0.84200
O421        O  0.65191773  0.65166110  0.69033141    -0.66400
Ni422      Ni  0.76842930  0.68933495  0.68361761     1.27400
Ni423      Ni  0.71457014  0.71580090  0.63024908     1.26100
H424        H  0.67973985  0.66826300  0.62492210     0.38700
C425        C  0.77764112  0.55111683  0.62885003    -0.02200
C426        C  0.75558648  0.53800060  0.60429317     0.07500
C427        C  0.72652096  0.55499133  0.59708125    -0.02300
C428        C  0.72058125  0.58588231  0.61242379    -0.02300
C429        C  0.74274400  0.59952252  0.63684557     0.07600
C430        C  0.77105602  0.58144637  0.64535756    -0.02500
Br431      Br  0.80034770  0.59736442  0.68075655    -0.01000
Br432      Br  0.81704497  0.52749677  0.63974566    -0.01100
Br433      Br  0.68307089  0.60951050  0.59730271    -0.01100
Br434      Br  0.69365176  0.53501845  0.56732218    -0.01100
C435        C  0.76137820  0.48255858  0.44213210    -0.02200
C436        C  0.79264068  0.47319833  0.42973454     0.07500
C437        C  0.81699061  0.46257704  0.45203998    -0.02300
C438        C  0.81055945  0.46255315  0.48664343    -0.02300
C439        C  0.77928622  0.47207269  0.49911460     0.07600
C440        C  0.75445475  0.48114985  0.47649563    -0.02500
Br441      Br  0.71018826  0.48968174  0.49217103    -0.01000
Br442      Br  0.72782215  0.49697194  0.41181280    -0.01100
Br443      Br  0.84494259  0.45033057  0.51705536    -0.01100
Br444      Br  0.85943889  0.44868019  0.43514719    -0.01100
C445        C  0.54996167  0.63264550  0.73995852    -0.02200
C446        C  0.54004025  0.60303218  0.72321095     0.07500
C447        C  0.56067187  0.58923777  0.69816604    -0.02300
C448        C  0.58914347  0.60661965  0.68797126    -0.02300
C449        C  0.59620331  0.63823880  0.70152626     0.07600
C450        C  0.57749292  0.65072960  0.72846571    -0.02500
Br451      Br  0.58899998  0.69298705  0.74878154    -0.01000
Br452      Br  0.52468819  0.64908481  0.77757541    -0.01100
Br453      Br  0.61694041  0.58828290  0.65328777    -0.01100
Br454      Br  0.54848901  0.54864347  0.67455204    -0.01100
C455        C  0.46243015  0.46128411  0.75979207    -0.02200
C456        C  0.46614785  0.44276526  0.72979392     0.07500
C457        C  0.46337152  0.45803619  0.69899989    -0.02300
C458        C  0.45891024  0.49211366  0.69820790    -0.02300
C459        C  0.45817533  0.51107510  0.72822344     0.07600
C460        C  0.45880608  0.49547605  0.75899668    -0.02500
Br461      Br  0.45621733  0.52132464  0.79999091    -0.01000
Br462      Br  0.46443684  0.44006803  0.80199678    -0.01100
Br463      Br  0.45604805  0.51312953  0.65596044    -0.01100
Br464      Br  0.46701178  0.43235790  0.65797217    -0.01100
C465        C  0.05973725  0.86693001  0.21516166    -0.02200
C466        C  0.04908023  0.88840761  0.24117296     0.07500
C467        C  0.07075055  0.89612733  0.26814771    -0.02300
C468        C  0.10193109  0.88124784  0.26977882    -0.02300
C469        C  0.11083335  0.85716769  0.24562989     0.07600
C470        C  0.08993036  0.85040112  0.21801892    -0.02500
Br471      Br  0.10212904  0.81782494  0.18468020    -0.01000
Br472      Br  0.03339298  0.86061551  0.17526287    -0.01100
Br473      Br  0.13156338  0.89195299  0.30664754    -0.01100
Br474      Br  0.05687347  0.92466018  0.30460363    -0.01100
C475        C  0.97143306  0.99832960  0.27471964    -0.02200
C476        C  0.96799971  0.97978216  0.24460407     0.07500
C477        C  0.96111133  0.99546311  0.21480020    -0.02300
C478        C  0.96025272  0.02987285  0.21459076    -0.02300
C479        C  0.96608310  0.04862913  0.24427482     0.07600
C480        C  0.97069947  0.03280798  0.27451645    -0.02500
Br481      Br  0.97735991  0.05852808  0.31523799    -0.01000
Br482      Br  0.97751916  0.97638792  0.31602619    -0.01100
Br483      Br  0.95309543  0.05129804  0.17319788    -0.01100
Br484      Br  0.95430447  0.96967020  0.17407004    -0.01100
C485        C  0.08610279  0.15706001  0.18508858    -0.02200
C486        C  0.10651258  0.17019287  0.21171744     0.07500
C487        C  0.09368961  0.16915428  0.24489478    -0.02300
C488        C  0.06192387  0.15531374  0.25084590    -0.02300
C489        C  0.04196494  0.14358340  0.22419928     0.07600
C490        C  0.05378156  0.14486838  0.19144667    -0.02500
Br491      Br  0.02495768  0.12984812  0.15518911    -0.01000
Br492      Br  0.10140702  0.15314451  0.13948319    -0.01100
Br493      Br  0.04495991  0.15257962  0.29578043    -0.01100
Br494      Br  0.11771582  0.18721364  0.28334846    -0.01100
C495        C  0.28320590  0.92915367  0.28836615    -0.02200
C496        C  0.26075766  0.90544076  0.30068094     0.07500
C497        C  0.24492755  0.91187605  0.33161868    -0.02300
C498        C  0.24903322  0.94266067  0.34827220    -0.02300
C499        C  0.27265712  0.96578799  0.33676337     0.07600
C500        C  0.29080646  0.95799266  0.30741203    -0.02500
Br501      Br  0.32735120  0.98593780  0.29367472    -0.01000
Br502      Br  0.30196429  0.92359294  0.24429031    -0.01100
Br503      Br  0.21999983  0.95335865  0.38520782    -0.01100
Br504      Br  0.21966824  0.87798312  0.35324655    -0.01100
C505        C  0.23212435  0.09105146  0.31682795    -0.02200
C506        C  0.26559892  0.08527302  0.32409586     0.07500
C507        C  0.29111342  0.10112689  0.30631604    -0.02300
C508        C  0.28302503  0.12251429  0.28083532    -0.02300
C509        C  0.24944263  0.12708589  0.27255721     0.07600
C510        C  0.22399660  0.11137825  0.29074629    -0.02500
Br511      Br  0.17779298  0.11529703  0.27845730    -0.01000
Br512      Br  0.19732473  0.06969910  0.34180764    -0.01100
Br513      Br  0.31768872  0.14611676  0.25796789    -0.01100
Br514      Br  0.33693494  0.09269402  0.31632125    -0.01100
C515        C  0.24855973  0.04260725  0.45568868    -0.02200
C516        C  0.27904126  0.04262343  0.43828967     0.07500
C517        C  0.30890323  0.04870597  0.45592856    -0.02300
C518        C  0.30847685  0.05295748  0.49091513    -0.02300
C519        C  0.27829089  0.05038215  0.50856683     0.07600
C520        C  0.24820405  0.04629543  0.49077380    -0.02500
Br521      Br  0.20665116  0.04551853  0.51460305    -0.01000
Br522      Br  0.20732457  0.03729864  0.43139717    -0.01100
Br523      Br  0.34922280  0.06277171  0.51480374    -0.01100
Br524      Br  0.35039998  0.05067077  0.43205832    -0.01100
C525        C  0.40568848  0.31976995  0.73169674    -0.02200
C526        C  0.43371348  0.32697444  0.75203873     0.07500
C527        C  0.43720334  0.31125983  0.78258662    -0.02300
C528        C  0.41368572  0.28734150  0.79190523    -0.02300
C529        C  0.38506994  0.28104676  0.77219712     0.07600
C530        C  0.38087847  0.29764817  0.74230587    -0.02500
Br531      Br  0.34200592  0.28877582  0.71499214    -0.01000
Br532      Br  0.40218925  0.33867745  0.68839962    -0.01100
Br533      Br  0.42098764  0.26311354  0.83167608    -0.01100
Br534      Br  0.47324354  0.32359031  0.81263816    -0.01100
C535        C  0.30968344  0.13656649  0.66364278    -0.02200
C536        C  0.28514215  0.13305862  0.68843694     0.07500
C537        C  0.25441159  0.11770090  0.67980105    -0.02300
C538        C  0.25045464  0.10172381  0.64830602    -0.02300
C539        C  0.27735949  0.10035092  0.62588650     0.07600
C540        C  0.30624645  0.11946330  0.63274549    -0.02500
Br541      Br  0.34297313  0.11823974  0.60193529    -0.01000
Br542      Br  0.34910775  0.16289865  0.67322560    -0.01100
Br543      Br  0.20964146  0.07825732  0.63709878    -0.01100
Br544      Br  0.21945286  0.11428018  0.71240538    -0.01100
C545        C  0.27977490  0.87068196  0.12038628    -0.02200
C546        C  0.24897222  0.87320539  0.10433114     0.07500
C547        C  0.22154358  0.85442093  0.11454039    -0.02300
C548        C  0.22363523  0.83675159  0.14376149    -0.02300
C549        C  0.25266891  0.83930596  0.16372714     0.07600
C550        C  0.28176559  0.85414633  0.15045268    -0.02500
Br551      Br  0.32365801  0.85558756  0.17409425    -0.01000
Br552      Br  0.31816856  0.89320459  0.10259927    -0.01100
Br553      Br  0.18616066  0.80989309  0.15619873    -0.01100
Br554      Br  0.17993907  0.85641743  0.09072582    -0.01100
C555        C  0.25453897  0.00574464  0.12560626    -0.02200
C556        C  0.22810482  0.99147781  0.10651748     0.07500
C557        C  0.19697601  0.00655636  0.10629307    -0.02300
C558        C  0.19358259  0.03769369  0.12150683    -0.02300
C559        C  0.22126660  0.05373210  0.13678061     0.07600
C560        C  0.25064069  0.03656871  0.14168471    -0.02500
Br561      Br  0.28546587  0.05555397  0.16960546    -0.01000
Br562      Br  0.29706476  0.98488475  0.12717034    -0.01100
Br563      Br  0.15122111  0.05911977  0.12087000    -0.01100
Br564      Br  0.15927113  0.98506568  0.08442184    -0.01100
C565        C  0.25125905  0.00162506  0.79652188    -0.02200
C566        C  0.22891138  0.99888290  0.82369930     0.07500
C567        C  0.21389010  0.02781560  0.83647645    -0.02300
C568        C  0.22639800  0.05891421  0.82745314    -0.02300
C569        C  0.24915019  0.06119671  0.80077849     0.07600
C570        C  0.25706491  0.03216388  0.78253537    -0.02500
Br571      Br  0.27686031  0.03378310  0.73854198    -0.01000
Br572      Br  0.27980343  0.96647575  0.78135320    -0.01100
Br573      Br  0.21465439  0.09695757  0.85428285    -0.01100
Br574      Br  0.17607002  0.02524265  0.86592356    -0.01100
C575        C  0.25893513  0.94347399  0.94428267    -0.02200
C576        C  0.22937364  0.93371758  0.92744318     0.07500
C577        C  0.20167746  0.92248127  0.94563988    -0.02300
C578        C  0.20350300  0.92117818  0.98056219    -0.02300
C579        C  0.23326324  0.93035621  0.99717979     0.07600
C580        C  0.26106873  0.94108003  0.97903164    -0.02500
Br581      Br  0.30224221  0.95195836  0.00198157    -0.01000
Br582      Br  0.29646163  0.96057277  0.92008404    -0.01100
Br583      Br  0.16511679  0.90767735  0.00582956    -0.01100
Br584      Br  0.16086853  0.91011287  0.92278508    -0.01100
C585        C  0.31331031  0.20954560  0.11322841    -0.02200
C586        C  0.30708985  0.17569434  0.11667588     0.07500
C587        C  0.33022470  0.15295314  0.10425095    -0.02300
C588        C  0.35800592  0.16378131  0.08609847    -0.02300
C589        C  0.36210484  0.19729482  0.07941663     0.07600
C590        C  0.34051679  0.22032305  0.09414064    -0.02500
Br591      Br  0.34656763  0.26627712  0.08543974    -0.01000
Br592      Br  0.28263552  0.24086580  0.13186614    -0.01100
Br593      Br  0.38852708  0.13239147  0.06728309    -0.01100
Br594      Br  0.32212451  0.10674800  0.10929146    -0.01100
C595        C  0.36051393  0.18638638  0.94325791    -0.02200
C596        C  0.37356837  0.21553040  0.95845636     0.03100
C597        C  0.37166003  0.24532034  0.94184732    -0.02300
C598        C  0.35822568  0.24575881  0.90946149    -0.02300
C599        C  0.34686641  0.21620151  0.89342257     0.07600
C600        C  0.34652934  0.18688091  0.91117107    -0.02500
Br601      Br  0.32442600  0.14787194  0.89284330    -0.01000
Br602      Br  0.36303522  0.14538696  0.96577834    -0.01100
Br603      Br  0.35580125  0.28705003  0.88748926    -0.01100
Br604      Br  0.38717576  0.28565735  0.96375767    -0.01100
C605        C  0.48770606  0.25610353  0.02972195    -0.02200
C606        C  0.47430444  0.22393447  0.03032331     0.07500
C607        C  0.49565073  0.19695943  0.02934249    -0.02300
C608        C  0.53018509  0.20211104  0.02607955    -0.02300
C609        C  0.54332271  0.23420493  0.02361342     0.07600
C610        C  0.52218950  0.26123249  0.02645954    -0.02500
Br611      Br  0.54056101  0.30523891  0.02496178    -0.01000
Br612      Br  0.45858811  0.29306153  0.03217362    -0.01100
Br613      Br  0.55947846  0.16529726  0.02351382    -0.01100
Br614      Br  0.47734122  0.15295125  0.03044945    -0.01100
C615        C  0.68757139  0.28425619  0.10577551    -0.02200
C616        C  0.71363378  0.26160470  0.10660060     0.07500
C617        C  0.71277155  0.23382200  0.08441136    -0.02300
C618        C  0.68637899  0.22910586  0.06159909    -0.02300
C619        C  0.66155633  0.25275376  0.05954922     0.07600
C620        C  0.66208328  0.28024754  0.08179950    -0.02500
Br621      Br  0.62921541  0.31368538  0.07786393    -0.01000
Br622      Br  0.68655431  0.32083290  0.13758652    -0.01100
Br623      Br  0.68436715  0.19033852  0.03256941    -0.01100
Br624      Br  0.74915015  0.20361236  0.08226572    -0.01100
C625        C  0.90002809  0.21769504  0.24297603    -0.02200
C626        C  0.87622396  0.21193447  0.21720980     0.07500
C627        C  0.87144163  0.17928181  0.20427681    -0.02300
C628        C  0.89419662  0.15484294  0.21172396    -0.02300
C629        C  0.92041062  0.16183202  0.23443379     0.07600
C630        C  0.92152262  0.19250784  0.25184994    -0.02500
Br631      Br  0.95297311  0.20007884  0.28794532    -0.01000
Br632      Br  0.90478522  0.25971182  0.26622038    -0.01100
Br633      Br  0.89038658  0.11289265  0.18803156    -0.01100
Br634      Br  0.83319464  0.16672210  0.17686513    -0.01100
C635        C  0.78026637  0.38595538  0.26810791    -0.02200
C636        C  0.80843959  0.36602343  0.26675749     0.07500
C637        C  0.83036320  0.36676774  0.29413762    -0.02300
C638        C  0.82813072  0.39185477  0.31908659    -0.02300
C639        C  0.80244832  0.41485077  0.31781060     0.07600
C640        C  0.77715575  0.41020135  0.29363377    -0.02500
Br641      Br  0.73910572  0.43807169  0.29440996    -0.01000
Br642      Br  0.74731629  0.38133438  0.23319543    -0.01100
Br643      Br  0.86240811  0.39683694  0.35255723    -0.01100
Br644      Br  0.86447145  0.33465031  0.29628505    -0.01100
C645        C  0.13225046  0.23986292  0.01039571    -0.02200
C646        C  0.12350678  0.21148679  0.99111923     0.07500
C647        C  0.12691853  0.18026680  0.00438975    -0.02300
C648        C  0.14102748  0.17732219  0.03614454    -0.02300
C649        C  0.15142984  0.20564847  0.05480831     0.07600
C650        C  0.14600616  0.23693156  0.04237334    -0.02500
Br651      Br  0.15863136  0.27559906  0.06846905    -0.01000
Br652      Br  0.12629826  0.28262589  0.99242240    -0.01100
Br653      Br  0.14596466  0.13440100  0.05419404    -0.01100
Br654      Br  0.11237626  0.14164525  0.97883667    -0.01100
C655        C  0.16240942  0.24241434  0.86345866    -0.02200
C656        C  0.14198935  0.21474062  0.86861062     0.07500
C657        C  0.14595371  0.18617965  0.84845400    -0.02300
C658        C  0.17280258  0.18403098  0.82586177    -0.02300
C659        C  0.19703899  0.20975060  0.82518951     0.07600
C660        C  0.18973307  0.24011678  0.84177147    -0.02500
Br661      Br  0.21638898  0.27930743  0.83468265    -0.01000
Br662      Br  0.15325005  0.28324313  0.88720373    -0.01100
Br663      Br  0.17507850  0.14631365  0.79578713    -0.01100
Br664      Br  0.11565921  0.14939620  0.85342508    -0.01100
C665        C  0.87030087  0.23038578  0.02053963    -0.02200
C666        C  0.86062621  0.25083133  0.99457724     0.07500
C667        C  0.83839261  0.27649445  0.00172177    -0.02300
C668        C  0.82509046  0.28068677  0.03393110    -0.02300
C669        C  0.83710801  0.26222909  0.06047439     0.07600
C670        C  0.86021284  0.23729813  0.05358483    -0.02500
Br671      Br  0.87994057  0.21366238  0.08929850    -0.01000
Br672      Br  0.89592893  0.19162363  0.01095150    -0.01100
Br673      Br  0.78837787  0.31006945  0.04043582    -0.01100
Br674      Br  0.82749031  0.30778082  0.96842088    -0.01100
C675        C  0.98059877  0.26372791  0.92424356    -0.02200
C676        C  0.95890838  0.23626933  0.92063249     0.07500
C677        C  0.97163337  0.20468780  0.91491757    -0.02300
C678        C  0.00609838  0.20049473  0.91301598    -0.02300
C679        C  0.02780179  0.22785103  0.91693491     0.07600
C680        C  0.01510227  0.25950002  0.92229453    -0.02500
Br681      Br  0.04516532  0.29675476  0.92806590    -0.01000
Br682      Br  0.96304903  0.30687600  0.93274439    -0.01100
Br683      Br  0.02378272  0.15710077  0.90694926    -0.01100
Br684      Br  0.94186793  0.16693494  0.91210908    -0.01100
C685        C  0.79156119  0.54918480  0.30701767    -0.02200
C686        C  0.81697333  0.53687071  0.32688576     0.07500
C687        C  0.84761892  0.55413996  0.32946791    -0.02300
C688        C  0.85266767  0.58385327  0.31277360    -0.02300
C689        C  0.82725330  0.59621852  0.29242621     0.07600
C690        C  0.79693412  0.57788353  0.28900192    -0.02500
Br691      Br  0.76302494  0.58993157  0.25767652    -0.01000
Br692      Br  0.74859136  0.52724056  0.30547604    -0.01100
Br693      Br  0.89428938  0.60747658  0.31915399    -0.01100
Br694      Br  0.88290588  0.53661935  0.35569531    -0.01100
C695        C  0.88930889  0.83136735  0.28110722    -0.02200
C696        C  0.89385626  0.80374362  0.25983053     0.07500
C697        C  0.90997559  0.80729429  0.22912583    -0.02300
C698        C  0.92570729  0.83723810  0.22200353    -0.02300
C699        C  0.92765321  0.86260796  0.24673596     0.07600
C700        C  0.90745787  0.86054459  0.27544023    -0.02500
Br701      Br  0.90734825  0.89557055  0.30892515    -0.01000
Br702      Br  0.86011367  0.82823310  0.31898778    -0.01100
Br703      Br  0.94552390  0.84315337  0.17892529    -0.01100
Br704      Br  0.91228946  0.77027654  0.19806031    -0.01100
C705        C  0.12183549  0.33064989  0.21940543    -0.02200
C706        C  0.12308476  0.35046002  0.19142573     0.07500
C707        C  0.14671299  0.34481155  0.16619722    -0.02300
C708        C  0.16826065  0.31834964  0.16836659    -0.02300
C709        C  0.16406855  0.29586436  0.19411919     0.07600
C710        C  0.14140838  0.30278939  0.22037670    -0.02500
Br711      Br  0.13402115  0.27354322  0.25681206    -0.01000
Br712      Br  0.09251481  0.34132558  0.25631137    -0.01100
Br713      Br  0.20435494  0.31398923  0.13700103    -0.01100
Br714      Br  0.14783418  0.37161924  0.12746593    -0.01100
C715        C  0.98754055  0.38391846  0.22152129    -0.02200
C716        C  0.00519006  0.38059719  0.19128392     0.07500
C717        C  0.98970878  0.36556683  0.16307177    -0.02300
C718        C  0.95663433  0.35421336  0.16500088    -0.02300
C719        C  0.93853981  0.35883931  0.19476807     0.07600
C720        C  0.95382536  0.37424538  0.22284315    -0.02500
Br721      Br  0.92825889  0.38383305  0.26228966    -0.01000
Br722      Br  0.00977080  0.40047446  0.26141579    -0.01100
Br723      Br  0.93528152  0.33403310  0.12608477    -0.01100
Br724      Br  0.01338409  0.36176641  0.12134318    -0.01100
C725        C  0.17702909  0.64497543  0.26268895    -0.02200
C726        C  0.16198997  0.64564025  0.23094774     0.07500
C727        C  0.16859560  0.67221103  0.21035364    -0.02300
C728        C  0.18552908  0.70009014  0.22345200    -0.02300
C729        C  0.19425039  0.70208425  0.25739688     0.07600
C730        C  0.19337378  0.67338032  0.27598477    -0.02500
Br731      Br  0.21111799  0.67387870  0.32062980    -0.01000
Br732      Br  0.17144212  0.60699316  0.28958233    -0.01100
Br733      Br  0.19493976  0.73663327  0.19582588    -0.01100
Br734      Br  0.15071618  0.67199965  0.16569753    -0.01100
C735        C  0.02100340  0.64294010  0.19937774    -0.02200
C736        C  0.03998098  0.63097184  0.22566155     0.07500
C737        C  0.02746456  0.63164933  0.25839742    -0.02300
C738        C  0.99620571  0.64486206  0.26497931    -0.02300
C739        C  0.97717339  0.65674201  0.23874629     0.07600
C740        C  0.98936853  0.65566006  0.20590946    -0.02500
Br741      Br  0.96310530  0.67248600  0.17035104    -0.01000
Br742      Br  0.03886354  0.64266897  0.15483368    -0.01100
Br743      Br  0.97965349  0.64739062  0.31010194    -0.01100
Br744      Br  0.05332657  0.61471085  0.29426870    -0.01100
C745        C  0.10358114  0.51558069  0.23345467    -0.02200
C746        C  0.10950614  0.53481695  0.20552166     0.07500
C747        C  0.11046443  0.52011488  0.17335242    -0.02300
C748        C  0.10305629  0.48643988  0.16888080    -0.02300
C749        C  0.09445688  0.46781200  0.19661207     0.07600
C750        C  0.09598922  0.48204410  0.22899377    -0.02500
Br751      Br  0.08697074  0.45569687  0.26711486    -0.01000
Br752      Br  0.10434833  0.53561236  0.27768806    -0.01100
Br753      Br  0.10343993  0.46601182  0.12486414    -0.01100
Br754      Br  0.12034745  0.54655955  0.13555279    -0.01100
C755        C  0.29116157  0.93546623  0.64164981    -0.02200
C756        C  0.32065172  0.92108641  0.62960288     0.07500
C757        C  0.34221673  0.93938684  0.60917480    -0.02300
C758        C  0.33279305  0.97013868  0.59804186    -0.02300
C759        C  0.30163096  0.98286486  0.60699858     0.07600
C760        C  0.28139598  0.96601764  0.62986338    -0.02500
Br761      Br  0.23913083  0.98358643  0.64339175    -0.01000
Br762      Br  0.26295163  0.91290362  0.67279974    -0.01100
Br763      Br  0.36314263  0.99505969  0.57102818    -0.01100
Br764      Br  0.38528734  0.92265056  0.59684372    -0.01100
C765        C  0.41321050  0.67346291  0.66814024    -0.02200
C766        C  0.38933861  0.68489157  0.69136417     0.07500
C767        C  0.38075453  0.66531107  0.71864109    -0.02300
C768        C  0.39817392  0.63647005  0.72448333    -0.02300
C769        C  0.42285507  0.62587118  0.70200238     0.07600
C770        C  0.42883047  0.64342594  0.67279952    -0.02500
Br771      Br  0.46000230  0.62700404  0.63990983    -0.01000
Br772      Br  0.42823184  0.70031945  0.63221249    -0.01100
Br773      Br  0.39043420  0.61338964  0.76505920    -0.01100
Br774      Br  0.34523721  0.67786256  0.74846180    -0.01100
C775        C  0.28119459  0.88112996  0.81585794    -0.02200
C776        C  0.24608759  0.88226589  0.81533555     0.07500
C777        C  0.22806809  0.86357783  0.79101027    -0.02300
C778        C  0.24507389  0.84462278  0.76675264    -0.02300
C779        C  0.28008222  0.84510097  0.76636006     0.07600
C780        C  0.29808236  0.86303031  0.79114971    -0.02500
Br781      Br  0.34617216  0.86508953  0.78954904    -0.01000
Br782      Br  0.30689159  0.90629504  0.84872492    -0.01100
Br783      Br  0.22067989  0.81781351  0.73426980    -0.01100
Br784      Br  0.18023661  0.86456096  0.79076336    -0.01100
C785        C  0.64309768  0.29905431  0.89810918    -0.02200
C786        C  0.65690396  0.27449713  0.87680485     0.07500
C787        C  0.65269141  0.24122094  0.88512056    -0.02300
C788        C  0.64025325  0.23334009  0.91684239    -0.02300
C789        C  0.63062368  0.25845332  0.93954815     0.07600
C790        C  0.63050386  0.29108993  0.92949080    -0.02500
Br791      Br  0.61371257  0.32505668  0.95923048    -0.01000
Br792      Br  0.63948649  0.34362459  0.88376925    -0.01100
Br793      Br  0.63729222  0.18830225  0.92988318    -0.01100
Br794      Br  0.66281866  0.20628473  0.85351977    -0.01100
C795        C  0.59716974  0.32767620  0.69821393    -0.02200
C796        C  0.62005686  0.33855167  0.72347453     0.07500
C797        C  0.60850885  0.35976594  0.74956584    -0.02300
C798        C  0.57460480  0.36750797  0.75178344    -0.02300
C799        C  0.55215395  0.35633594  0.72681771     0.07600
C800        C  0.56354984  0.33670988  0.69990340    -0.02500
Br801      Br  0.53290552  0.32268874  0.66491937    -0.01000
Br802      Br  0.61151600  0.30225913  0.65952798    -0.01100
Br803      Br  0.55826952  0.39190965  0.79036849    -0.01100
Br804      Br  0.63796504  0.37921027  0.78277318    -0.01100
C805        C  0.77319399  0.37618548  0.64662822    -0.02200
C806        C  0.73984117  0.36661703  0.65289030     0.07500
C807        C  0.71405980  0.38124279  0.63492945    -0.02300
C808        C  0.72152751  0.40552410  0.61174931    -0.02300
C809        C  0.75460500  0.41618922  0.60696405     0.07600
C810        C  0.78047105  0.40107012  0.62395829    -0.02500
Br811      Br  0.82579170  0.41548896  0.61693706    -0.01000
Br812      Br  0.80910737  0.35520694  0.66894714    -0.01100
Br813      Br  0.68629554  0.42548039  0.58732525    -0.01100
Br814      Br  0.66810493  0.37104553  0.64430525    -0.01100
C815        C  0.82471348  0.28044994  0.82827318    -0.02200
C816        C  0.79408808  0.26295190  0.82814172     0.07500
C817        C  0.79129927  0.23379023  0.84594852    -0.02300
C818        C  0.81781281  0.22391348  0.86588425    -0.02300
C819        C  0.84596089  0.24465369  0.87055152     0.07600
C820        C  0.85011977  0.27222035  0.85039883    -0.02500
Br821      Br  0.88827516  0.30150879  0.85580578    -0.01000
Br822      Br  0.83069050  0.31744945  0.79988499    -0.01100
Br823      Br  0.81501119  0.18279504  0.88832270    -0.01100
Br824      Br  0.74973911  0.21012026  0.84790423    -0.01100
C825        C  0.82734033  0.44637618  0.06954411    -0.02200
C826        C  0.80594356  0.47246128  0.07693167     0.07500
C827        C  0.77655650  0.46720091  0.09519287    -0.02300
C828        C  0.76985655  0.43632317  0.10825078    -0.02300
C829        C  0.79236291  0.41083710  0.10277089     0.07600
C830        C  0.82049642  0.41543281  0.08238675    -0.02500
Br831      Br  0.85160477  0.38051254  0.07476949    -0.01000
Br832      Br  0.86740699  0.45374082  0.04412033    -0.01100
Br833      Br  0.73034594  0.42887567  0.13435025    -0.01100
Br834      Br  0.74585310  0.50238593  0.10278732    -0.01100
C835        C  0.86685130  0.60641713  0.15490314    -0.02200
C836        C  0.84429825  0.63223568  0.15897372     0.07500
C837        C  0.82046248  0.63766339  0.13419464    -0.02300
C838        C  0.81642529  0.61503574  0.10738682    -0.02300
C839        C  0.83822645  0.58843061  0.10390549     0.07600
C840        C  0.86452924  0.58527301  0.12670920    -0.02500
Br841      Br  0.89695249  0.55142162  0.11977451    -0.01000
Br842      Br  0.89866559  0.59748110  0.18932005    -0.01100
Br843      Br  0.77871440  0.61900480  0.07801861    -0.01100
Br844      Br  0.79323999  0.67613441  0.13710230    -0.01100
C845        C  0.76097928  0.65461448  0.78881180    -0.02200
C846        C  0.73015642  0.65171676  0.77202773     0.07500
C847        C  0.70442173  0.63168454  0.78495106    -0.02300
C848        C  0.71172949  0.61044939  0.81048993    -0.02300
C849        C  0.74451091  0.60887288  0.82225000     0.07600
C850        C  0.76864431  0.63231203  0.81318827    -0.02500
Br851      Br  0.81324213  0.63159574  0.83099869    -0.01000
Br852      Br  0.79306378  0.68856167  0.77795590    -0.01100
Br853      Br  0.67758412  0.58179616  0.82807185    -0.01100
Br854      Br  0.65999364  0.63042144  0.76680383    -0.01100
C855        C  0.73101629  0.46876977  0.83815335    -0.02200
C856        C  0.75644073  0.48867086  0.82498687     0.07500
C857        C  0.77598062  0.47693083  0.79820089    -0.02300
C858        C  0.77034472  0.44492107  0.78498232    -0.02300
C859        C  0.74625314  0.42450558  0.79959533     0.07600
C860        C  0.72668968  0.43638789  0.82619552    -0.02500
Br861      Br  0.69451254  0.40805465  0.84705028    -0.01000
Br862      Br  0.70154916  0.48603274  0.87213291    -0.01100
Br863      Br  0.79627029  0.42848358  0.74791901    -0.01100
Br864      Br  0.81135983  0.50402642  0.78088895    -0.01100
C865        C  0.82074618  0.56015654  0.93072990    -0.02200
C866        C  0.78656559  0.55830864  0.92355039     0.07500
C867        C  0.76289938  0.55610282  0.94908080    -0.02300
C868        C  0.77360234  0.55341562  0.98193500    -0.02300
C869        C  0.80791415  0.55273686  0.98889050     0.07600
C870        C  0.83154159  0.55707158  0.96360125    -0.02500
Br871      Br  0.87837355  0.55638859  0.97363969    -0.01000
Br872      Br  0.85246084  0.56578545  0.89526556    -0.01100
Br873      Br  0.74125451  0.54921921  0.01719546    -0.01100
Br874      Br  0.71598696  0.55519174  0.93880147    -0.01100
C875        C  0.36991298  0.73808617  0.35967058    -0.02200
C876        C  0.38501460  0.76331030  0.37951584     0.07500
C877        C  0.37133055  0.79474531  0.38138170    -0.02300
C878        C  0.34198652  0.80085187  0.36407888    -0.02300
C879        C  0.32700353  0.77584035  0.34366553     0.07600
C880        C  0.34098803  0.74441445  0.34145309    -0.02500
Br881      Br  0.32175123  0.71067216  0.31209792    -0.01000
Br882      Br  0.38925368  0.69522151  0.35716306    -0.01100
Br883      Br  0.32178952  0.84329108  0.36946547    -0.01100
Br884      Br  0.39353723  0.82972589  0.40702016    -0.01100
C885        C  0.43884504  0.78013255  0.51215737    -0.02200
C886        C  0.43101650  0.75185071  0.49210541     0.07500
C887        C  0.41174179  0.72616217  0.50553566    -0.02300
C888        C  0.39689207  0.73047735  0.53703159    -0.02300
C889        C  0.40222640  0.75999106  0.55549257     0.07600
C890        C  0.42460398  0.78397685  0.54395859    -0.02500
Br891      Br  0.43329818  0.82347607  0.57079243    -0.01000
Br892      Br  0.46605695  0.81538684  0.49531608    -0.01100
Br893      Br  0.36775608  0.69696553  0.55419740    -0.01100
Br894      Br  0.40471083  0.68561034  0.48011596    -0.01100
C895        C  0.64450292  0.72582764  0.48497711    -0.02200
C896        C  0.65906643  0.75517622  0.47364815     0.07500
C897        C  0.68079187  0.77402031  0.49452081    -0.02300
C898        C  0.68738697  0.76386419  0.52694635    -0.02300
C899        C  0.67052661  0.73605153  0.53907277     0.07600
C900        C  0.64956961  0.71672604  0.51786784    -0.02500
Br901      Br  0.62917076  0.67660293  0.53326627    -0.01000
Br902      Br  0.61897155  0.69692687  0.45511329    -0.01100
Br903      Br  0.71936957  0.78812940  0.55445695    -0.01100
Br904      Br  0.70049554  0.81428117  0.47910835    -0.01100
C905        C  0.72931558  0.71165095  0.33259474    -0.02200
C906        C  0.74784565  0.73580612  0.31574633     0.07500
C907        C  0.73954081  0.76915465  0.31941652    -0.02300
C908        C  0.71299866  0.77831883  0.34022824    -0.02300
C909        C  0.69466830  0.75415548  0.35687379     0.07600
C910        C  0.70249538  0.72082868  0.35269883    -0.02500
Br911      Br  0.67703108  0.68767452  0.37543878    -0.01000
Br912      Br  0.74213469  0.66609407  0.33090807    -0.01100
Br913      Br  0.70238683  0.82392470  0.34713422    -0.01100
Br914      Br  0.76406439  0.80218656  0.29578949    -0.01100
C915        C  0.56032500  0.74065954  0.38032302    -0.02200
C916        C  0.57625350  0.77134701  0.38689634     0.07500
C917        C  0.55723739  0.79935868  0.39340813    -0.02300
C918        C  0.52272904  0.79599032  0.39770835    -0.02300
C919        C  0.50750560  0.76457852  0.39536008     0.07600
C920        C  0.52584412  0.73732031  0.38458778    -0.02500
Br921      Br  0.50389836  0.69503234  0.37830334    -0.01000
Br922      Br  0.58586156  0.70250864  0.36875719    -0.01100
Br923      Br  0.49664771  0.83391120  0.40872773    -0.01100
Br924      Br  0.57908758  0.84175793  0.39862823    -0.01100
C925        C  0.13571414  0.78949577  0.43772974    -0.02200
C926        C  0.15046666  0.76975315  0.46169963     0.07500
C927        C  0.17664249  0.74880403  0.45205509    -0.02300
C928        C  0.18881425  0.74871283  0.41913541    -0.02300
C929        C  0.17340430  0.76778585  0.39524978     0.07600
C930        C  0.14647814  0.78770745  0.40448258    -0.02500
Br931      Br  0.12545673  0.81442814  0.37186044    -0.01000
Br932      Br  0.10260345  0.82126768  0.45044542    -0.01100
Br933      Br  0.22631319  0.72234231  0.40662413    -0.01100
Br934      Br  0.19511581  0.71922817  0.48341305    -0.01100
C935        C  0.19298158  0.77321917  0.59966955    -0.02200
C936        C  0.17900099  0.79711956  0.57963648     0.07500
C937        C  0.19470677  0.82813230  0.57749434    -0.02300
C938        C  0.22608008  0.83394624  0.59211884    -0.02300
C939        C  0.24144751  0.80904292  0.60980423     0.07600
C940        C  0.22416145  0.77927843  0.61497041    -0.02500
Br941      Br  0.24466508  0.74571083  0.64012723    -0.01000
Br942      Br  0.17083212  0.73115626  0.60351798    -0.01100
Br943      Br  0.24876859  0.87546398  0.58611113    -0.01100
Br944      Br  0.17393624  0.86187849  0.55259587    -0.01100
C945        C  0.86268145  0.73235968  0.57950620    -0.02200
C946        C  0.86934957  0.76594683  0.57520379     0.07500
C947        C  0.84704613  0.78953165  0.58762769    -0.02300
C948        C  0.81811348  0.77949518  0.60464776    -0.02300
C949        C  0.81106324  0.74576101  0.60803361     0.07600
C950        C  0.83300047  0.72226296  0.59444905    -0.02500
Br951      Br  0.82124897  0.67590776  0.59353426    -0.01000
Br952      Br  0.89383518  0.69980188  0.56400141    -0.01100
Br953      Br  0.78865720  0.81176629  0.62351165    -0.01100
Br954      Br  0.85650506  0.83538462  0.58125516    -0.01100
C955        C  0.87727569  0.73932662  0.44851522    -0.02200
C956        C  0.89923590  0.76583083  0.45754782     0.07500
C957        C  0.91255083  0.78569203  0.43256337    -0.02300
C958        C  0.90690459  0.77716112  0.39883842    -0.02300
C959        C  0.88575029  0.75020616  0.38987592     0.07600
C960        C  0.86963237  0.73238466  0.41479153    -0.02500
Br961      Br  0.83938594  0.69638688  0.40275971    -0.01000
Br962      Br  0.85998188  0.70991454  0.48132847    -0.01100
Br963      Br  0.92931049  0.80202158  0.36507723    -0.01100
Br964      Br  0.93834335  0.82490650  0.44439550    -0.01100
C965        C  0.00705939  0.80219981  0.55068296    -0.02200
C966        C  0.98947352  0.77264598  0.54306576     0.07500
C967        C  0.00687297  0.74314505  0.53912593    -0.02300
C968        C  0.04178217  0.74345212  0.54109972    -0.02300
C969        C  0.05958924  0.77340233  0.54574822     0.07600
C970        C  0.04209522  0.80272352  0.55147874    -0.02500
Br971      Br  0.06593255  0.84410534  0.55713087    -0.01000
Br972      Br  0.98309755  0.84234568  0.55754414    -0.01100
Br973      Br  0.06548284  0.70291118  0.53637671    -0.01100
Br974      Br  0.98292986  0.70249363  0.52936265    -0.01100
C975        C  0.45113144  0.12228834  0.74528761    -0.02200
C976        C  0.43804861  0.13596204  0.77542722     0.07500
C977        C  0.45936746  0.13983509  0.80363019    -0.02300
C978        C  0.49250659  0.12910007  0.80186181    -0.02300
C979        C  0.50444225  0.11377256  0.77245698     0.07600
C980        C  0.48387135  0.11088793  0.74409282    -0.02500
Br981      Br  0.50090930  0.09161401  0.70303137    -0.01000
Br982      Br  0.42543110  0.12002295  0.70444206    -0.01100
Br983      Br  0.52156271  0.13430819  0.84006947    -0.01100
Br984      Br  0.44351962  0.15789064  0.84568392    -0.01100
C985        C  0.65396417  0.13740734  0.76483558    -0.02200
C986        C  0.62351051  0.13447958  0.74742969     0.07500
C987        C  0.61687876  0.15628875  0.72188623    -0.02300
C988        C  0.63731044  0.18417585  0.71787534    -0.02300
C989        C  0.66673237  0.18869649  0.73713981     0.07600
C990        C  0.67617782  0.16365337  0.75846253    -0.02500
Br991      Br  0.72005588  0.16440253  0.77760883    -0.01000
Br992      Br  0.66445387  0.10708418  0.79898321    -0.01100
Br993      Br  0.62190283  0.21716018  0.68833338    -0.01100
Br994      Br  0.57942252  0.14801439  0.69227618    -0.01100
C995        C  0.62443837  0.84343385  0.66484400    -0.02200
C996        C  0.61789052  0.84485014  0.69926839     0.07500
C997        C  0.63370835  0.82324877  0.72051029    -0.02300
C998        C  0.65335020  0.79806288  0.70688362    -0.02300
C999        C  0.65715638  0.79459197  0.67207557     0.07600
C1000       C  0.64403176  0.81824648  0.65123238    -0.02500
Br1001     Br  0.64894822  0.81350770  0.60360942    -0.01000
Br1002     Br  0.60377456  0.87399810  0.63605135    -0.01100
Br1003     Br  0.67214757  0.76611602  0.73540018    -0.01100
Br1004     Br  0.62571832  0.82633448  0.76787452    -0.01100
C1005       C  0.47058639  0.86927635  0.70651181    -0.02200
C1006       C  0.49691670  0.85320476  0.72227869     0.07500
C1007       C  0.49108651  0.82119606  0.73405853    -0.02300
C1008       C  0.46059147  0.80457450  0.72746317    -0.02300
C1009       C  0.43477218  0.82053340  0.71131790     0.07600
C1010       C  0.43925350  0.85349388  0.70265479    -0.02500
Br1011     Br  0.40216267  0.87752939  0.68651975    -0.01000
Br1012     Br  0.47738812  0.91174680  0.68738972    -0.01100
Br1013     Br  0.45398218  0.75980638  0.74062172    -0.01100
Br1014     Br  0.52421514  0.80021717  0.76043206    -0.01100
C1015       C  0.57776553  0.96393041  0.77550491    -0.02200
C1016       C  0.57339371  0.95076695  0.74287674     0.07500
C1017       C  0.57332089  0.97178542  0.71569004    -0.02300
C1018       C  0.57608269  0.00592210  0.72121005    -0.02300
C1019       C  0.57838039  0.01920937  0.75398656     0.07600
C1020       C  0.58022278  0.99819258  0.78105418    -0.02500
Br1021     Br  0.58636460  0.01660698  0.82555396    -0.01000
Br1022     Br  0.58024200  0.93500148  0.81235912    -0.01100
Br1023     Br  0.57579143  0.03453678  0.68387289    -0.01100
Br1024     Br  0.56814549  0.95384220  0.67082607    -0.01100
loop_ 
_geom_bond_atom_site_label_1 
_geom_bond_atom_site_label_2 
_geom_bond_distance 
_geom_bond_site_symmetry_2 
_ccdc_geom_bond_type 
C1            C2   1.397       .  A
C1            C6   1.401       .  A
C1          C996   1.473       .  S
C2            C3   1.401       .  A
C2            H7   1.084       .  S
C3            C4   1.408       .  A
C3         C1016   1.478       .  S
C4            C5   1.410       .  A
C4            H8   1.083       .  S
C5            C6   1.404       .  A
C5         C1006   1.497       .  S
C6            H9   1.084       .  S
C10          C11   1.405       .  A
C10          C15   1.408       .  A
C10         C986   1.485       .  S
C11          C12   1.404       .  A
C11          H16   1.084       .  S
C12          C13   1.403       .  A
C12        C1019   1.477       .  S
C13          C14   1.401       .  A
C13          H17   1.084       .  S
C14          C15   1.399       .  A
C14         C979   1.484       .  S
C15          H18   1.084       .  S
C19          C20   1.406       .  A
C19          C24   1.398       .  A
C19         C946   1.471       .  S
C20          C21   1.405       .  A
C20          H25   1.083       .  S
C21          C22   1.404       .  A
C21         C966   1.482       .  S
C22          C23   1.405       .  A
C22          H26   1.084       .  S
C23          C24   1.396       .  A
C23         C956   1.484       .  S
C24          H27   1.085       .  S
C28          C29   1.406       .  A
C28          C33   1.401       .  A
C28         C936   1.478       .  S
C29          C30   1.408       .  A
C29          H34   1.083       .  S
C30          C31   1.405       .  A
C30         C969   1.484       .  S
C31          C32   1.401       .  A
C31          H35   1.084       .  S
C32          C33   1.397       .  A
C32         C926   1.486       .  S
C33          H36   1.085       .  S
C37          C38   1.399       .  A
C37          C42   1.402       .  A
C37         C909   1.465       .  S
C38          C39   1.395       .  A
C38          H43   1.085       .  S
C39          C40   1.397       .  A
C39         C896   1.472       .  S
C40          C41   1.401       .  A
C40          H44   1.085       .  S
C41          C42   1.400       .  A
C41         C916   1.470       .  S
C42          H45   1.084       .  S
C46          C47   1.398       .  A
C46          C51   1.398       .  A
C46         C876   1.467       .  S
C47          C48   1.399       .  A
C47          H52   1.084       .  S
C48          C49   1.405       .  A
C48         C919   1.469       .  S
C49          C50   1.401       .  A
C49          H53   1.084       .  S
C50          C51   1.400       .  A
C50         C886   1.482       .  S
C51          H54   1.085       .  S
C55          C56   1.392       .  A
C55          C60   1.401       .  A
C55         C849   1.457       .  S
C56          C57   1.390       .  A
C56          H61   1.084       .  S
C57          C58   1.397       .  A
C57         C866   1.452       .  S
C58          C59   1.397       .  A
C58          H62   1.085       .  S
C59          C60   1.394       .  A
C59         C856   1.467       .  S
C60          H63   1.084       .  S
C64          C65   1.399       .  A
C64          C69   1.403       .  A
C64         C839   1.472       .  S
C65          C66   1.395       .  A
C65          H70   1.084       .  S
C66          C67   1.395       .  A
C66         C869   1.455   1_554  S
C67          C68   1.390       .  A
C67          H71   1.085       .  S
C68          C69   1.397       .  A
C68         C826   1.465       .  S
C69          H72   1.084       .  S
O73         Ni79   1.921       .  S
O73          C94   1.270       .  A
O74         Ni97   1.904       .  S
O74          C83   1.264       .  A
O75         Ni79   1.921       .  S
O75         Ni97   1.920       .  S
O75         Ni91   1.951       .  S
O75          H98   0.966       .  S
C76         C786   1.492       .  S
C76          O93   1.282       .  A
C76          O85   1.277       .  A
O77         Ni96   1.914       .  S
O77          C83   1.265       .  A
O78         Ni96   1.887       .  S
O78          C80   1.265       .  A
Ni79         O82   1.948       .  S
Ni79         O84   1.908       .  S
C80         C816   1.482       .  S
C80          O90   1.276       .  A
O81         Ni97   1.902       .  S
O81          C87   1.264       .  A
O82          C87   1.273       .  A
C83         C859   1.460       .  S
O84          C86   1.271       .  A
O85         Ni96   1.913       .  S
C86         C796   1.502       .  S
C86          O92   1.281       .  A
C87         C806   1.491       .  S
H88          O89   0.961       .  S
O89         Ni97   1.896       .  S
O89         Ni91   1.881       .  S
O89         Ni96   1.894       .  S
O90         Ni91   1.947       .  S
Ni91         O95   1.906       .  S
Ni91         O93   1.939       .  S
O92         Ni97   1.962       .  S
C94         C989   1.488       .  S
C94          O95   1.270       .  A
O99        Ni105   1.921       .  S
O99         C120   1.268       .  A
O100       Ni123   1.904       .  S
O100        C109   1.268       .  A
O101       Ni105   1.899       .  S
O101       Ni123   1.892       .  S
O101       Ni117   1.894       .  S
O101        H124   0.964       .  S
C102        C766   1.486       .  S
C102        O119   1.264       .  A
C102        O111   1.271       .  A
O103       Ni122   1.917       .  S
O103        C109   1.270       .  A
O104       Ni122   1.905       .  S
O104        C106   1.270       .  A
Ni105       O108   1.913       .  S
Ni105       O110   1.900       .  S
C106       C1009   1.479       .  S
C106        O116   1.282       .  A
O107       Ni123   1.930       .  S
O107        C113   1.280       .  A
O108        C113   1.277       .  A
C109        C779   1.469       .  S
O110        C112   1.267       .  A
O111       Ni122   1.937       .  S
C112        C939   1.474       .  S
C112        O118   1.271       .  A
C113        C756   1.483       .  S
H114        O115   0.966       .  S
O115       Ni123   1.941       .  S
O115       Ni117   1.913       .  S
O115       Ni122   1.922       .  S
O116       Ni117   1.959       .  S
Ni117       O121   1.906       .  S
Ni117       O119   1.905       .  S
O118       Ni123   1.931       .  S
C120        C889   1.466       .  S
C120        O121   1.264       .  A
C125        C126   1.403       .  A
C125        C130   1.404       .  A
C125        C726   1.474       .  S
C126        C127   1.403       .  A
C126        H131   1.083       .  S
C127        C128   1.400       .  A
C127        C746   1.466       .  S
C128        C129   1.392       .  A
C128        H132   1.085       .  S
C129        C130   1.395       .  A
C129        C736   1.469       .  S
C130        H133   1.085       .  S
C134        C135   1.398       .  A
C134        C139   1.395       .  A
C134        C706   1.465       .  S
C135        C136   1.395       .  A
C135        H140   1.085       .  S
C136        C137   1.403       .  A
C136        C716   1.475       .  S
C137        C138   1.405       .  A
C137        H141   1.084       .  S
C138        C139   1.396       .  A
C138        C749   1.467       .  S
C139        H142   1.084       .  S
O143       Ni149   1.917       .  S
O143        C164   1.264       .  A
O144       Ni167   1.895       .  S
O144        C153   1.265       .  A
O145       Ni149   1.909       .  S
O145       Ni167   1.899       .  S
O145       Ni161   1.894       .  S
O145        H168   0.965       .  S
C146        C836   1.465       .  S
C146        O163   1.262       .  A
C146        O155   1.271       .  A
O147       Ni166   1.910       .  S
O147        C153   1.268       .  A
O148       Ni166   1.902       .  S
O148        C150   1.268       .  A
Ni149       O152   1.907       .  S
Ni149       O154   1.896       .  S
C150        C689   1.502       .  S
C150        O160   1.279       .  A
O151       Ni167   1.919       .  S
O151        C157   1.277       .  A
O152        C157   1.273       .  A
C153        C906   1.468       .  S
O154        C156   1.266       .  A
O155       Ni166   1.924       .  S
C156        C696   1.467       .  S
C156        O162   1.267       .  A
C157        C959   1.471       .  S
H158        O159   0.966       .  S
O159       Ni167   1.927       .  S
O159       Ni161   1.916       .  S
O159       Ni166   1.913       .  S
O160       Ni161   1.961       .  S
Ni161       O165   1.902       .  S
Ni161       O163   1.888       .  S
O162       Ni167   1.923       .  S
C164        C739   1.461       .  S
C164        O165   1.262       .  A
C169        C170   1.399       .  A
C169        C174   1.408       .  A
C169        C819   1.484       .  S
C170        C171   1.399       .  A
C170        H175   1.084       .  S
C171        C172   1.399       .  A
C171        C676   1.470       .  S
C172        C173   1.402       .  A
C172        H176   1.084       .  S
C173        C174   1.406       .  A
C173        C666   1.491       .  S
C174        H177   1.083       .  S
C178        C179   1.404       .  A
C178        C183   1.405       .  A
C178        C656   1.480       .  S
C179        C180   1.404       .  A
C179        H184   1.083       .  S
C180        C181   1.398       .  A
C180        C679   1.469       .  S
C181        C182   1.394       .  A
C181        H185   1.085       .  S
C182        C183   1.401       .  A
C182        C646   1.473       .  S
C183        H186   1.084       .  S
O187       Ni193   1.903       .  S
O187        C208   1.264       .  A
O188       Ni211   1.923       .  S
O188        C197   1.272       .  A
O189       Ni193   1.882       .  S
O189       Ni211   1.885       .  S
O189       Ni205   1.910       .  S
O189        H212   0.966       .  S
C190        C616   1.484       .  S
C190        O207   1.276       .  A
C190        O199   1.280       .  A
O191       Ni210   1.925       .  S
O191        C197   1.269       .  A
O192       Ni210   1.914       .  S
O192        C194   1.267       .  A
Ni193       O196   1.910       .  S
Ni193       O198   1.886       .  S
C194        C669   1.486       .  S
C194        O204   1.267       .  A
O195       Ni211   1.937       .  S
O195        C201   1.286       .  A
O196        C201   1.278       .  A
C197        C626   1.501       .  S
O198        C200   1.264       .  A
O199       Ni210   1.929       .  S
C200        C636   1.481       .  S
C200        O206   1.277       .  A
C201        C719   1.466       .  S
H202        O203   0.966       .  S
O203       Ni211   1.926       .  S
O203       Ni205   1.898       .  S
O203       Ni210   1.900       .  S
O204       Ni205   1.918       .  S
Ni205       O209   1.903       .  S
Ni205       O207   1.914       .  S
O206       Ni211   1.952       .  S
C208        C829   1.459       .  S
C208        O209   1.263       .  A
C213        C214   1.407       .  A
C213        C218   1.403   1_554  A
C213        C606   1.478       .  S
C214        C215   1.406       .  A
C214        H219   1.083       .  S
C215        C216   1.402       .  A
C215        C589   1.478       .  S
C216        C217   1.398   1_554  A
C216        H220   1.085       .  S
C217        C218   1.400       .  A
C217        C596   1.479       .  S
C218        H221   1.084       .  S
C222        C223   1.403       .  A
C222        C227   1.405   1_554  A
C222        C619   1.482       .  S
C223        C224   1.402       .  A
C223        H228   1.084       .  S
C224        C225   1.404   1_554  A
C224        C609   1.476       .  S
C225        C226   1.400       .  A
C225        H229   1.084       .  S
C226        C227   1.402       .  A
C226        C789   1.479       .  S
C227        H230   1.084       .  S
C231        C232   1.401       .  A
C231        C236   1.401       .  A
C231        C776   1.480       .  S
C232        C233   1.402       .  A
C232        H237   1.084       .  S
C233        C234   1.403       .  A
C233        C576   1.477       .  S
C234        C235   1.409       .  A
C234        H238   1.083       .  S
C235        C236   1.404       .  A
C235        C566   1.498       .  S
C236        H239   1.083       .  S
C240        C241   1.397       .  A
C240        C245   1.399       .  A
C240        C546   1.463       .  S
C241        C242   1.391       .  A
C241        H246   1.085       .  S
C242        C243   1.401       .  A
C242        C556   1.472       .  S
C243        C244   1.403       .  A
C243        H247   1.084       .  S
C244        C245   1.403       .  A
C244        C579   1.471   1_554  S
C245        H248   1.084       .  S
O249       Ni255   1.923       .  S
O249        C270   1.270       .  A
O250       Ni273   1.914       .  S
O250        C259   1.267       .  A
O251       Ni255   1.901       .  S
O251       Ni273   1.902       .  S
O251       Ni267   1.918       .  S
O251        H274   0.966       .  S
C252        C569   1.491       .  S
C252        O269   1.279       .  A
C252        O261   1.273       .  A
O253       Ni272   1.922       .  S
O253        C259   1.269       .  A
O254       Ni272   1.901       .  S
O254        C256   1.270       .  A
Ni255       O258   1.930       .  S
Ni255       O260   1.910       .  S
C256        C536   1.483       .  S
C256        O266   1.277       .  A
O257       Ni273   1.908       .  S
O257        C263   1.273       .  A
O258        C263   1.278       .  A
C259        C976   1.498       .  S
O260        C262   1.267       .  A
O261       Ni272   1.901       .  S
C262        C599   1.482       .  S
C262        O268   1.270       .  A
C263        C529   1.473       .  S
H264        O265   0.964       .  S
O265       Ni273   1.902       .  S
O265       Ni267   1.918       .  S
O265       Ni272   1.889       .  S
O266       Ni267   1.944       .  S
Ni267       O271   1.932       .  S
Ni267       O269   1.936       .  S
O268       Ni273   1.923       .  S
C270        C659   1.501       .  S
C270        O271   1.275       .  A
C275        C276   1.400       .  A
C275        C280   1.396       .  A
C275        C506   1.470       .  S
C276        C277   1.403       .  A
C276        H281   1.084       .  S
C277        C278   1.411       .  A
C277        C516   1.485       .  S
C278        C279   1.412   1_545  A
C278        H282   1.083   1_545  S
C279        C280   1.399   1_565  A
C279        C499   1.496       .  S
C280        H283   1.085       .  S
C284        C285   1.401       .  A
C284        C289   1.409       .  A
C284        C539   1.481       .  S
C285        C286   1.396       .  A
C285        H290   1.085       .  S
C286        C287   1.404       .  A
C286        C759   1.486   1_545  S
C287        C288   1.406       .  A
C287        H291   1.084   1_545  S
C288        C289   1.410       .  A
C288        C519   1.487       .  S
C289        H292   1.083       .  S
O293       Ni299   1.907       .  S
O293        C314   1.264       .  A
O294       Ni317   1.906       .  S
O294        C303   1.266       .  A
O295       Ni299   1.899       .  S
O295       Ni317   1.896       .  S
O295       Ni311   1.900       .  S
O295        H318   0.965       .  S
C296        C709   1.475       .  S
C296        O313   1.268       .  A
C296        O305   1.267       .  A
O297       Ni316   1.908       .  S
O297        C303   1.265       .  A
O298       Ni316   1.913       .  S
O298        C300   1.268       .  A
Ni299       O302   1.900       .  S
Ni299       O304   1.898       .  S
C300        C486   1.509       .  S
C300        O310   1.271       .  A
O301       Ni317   1.924       .  S
O301        C307   1.277       .  A
O302        C307   1.274       .  A
C303        C509   1.470       .  S
O304        C306   1.265       .  A
O305       Ni316   1.906       .  S
C306        C586   1.474       .  S
C306        O312   1.272       .  A
C307        C559   1.466       .  S
H308        O309   0.966       .  S
O309       Ni317   1.924       .  S
O309       Ni311   1.929       .  S
O309       Ni316   1.911       .  S
O310       Ni311   1.933       .  S
Ni311       O315   1.922       .  S
Ni311       O313   1.897       .  S
O312       Ni317   1.937       .  S
C314        C649   1.472       .  S
C314        O315   1.268       .  A
C319        C320   1.402       .  A
C319        C324   1.407       .  A
C319        C699   1.483       .  S
C320        C321   1.402       .  A
C320        H325   1.084       .  S
C321        C322   1.405   1_655  A
C321        C476   1.474       .  S
C322        C323   1.402       .  A
C322        H326   1.084       .  S
C323        C324   1.403   1_455  A
C323        C466   1.488       .  S
C324        H327   1.084       .  S
C328        C329   1.409       .  A
C328        C333   1.406       .  A
C328        C629   1.491       .  S
C329        C330   1.405       .  A
C329        H334   1.083       .  S
C330        C331   1.401   1_655  A
C330        C479   1.477       .  S
C331        C332   1.398       .  A
C331        H335   1.084       .  S
C332        C333   1.398   1_455  A
C332        C489   1.477       .  S
C333        H336   1.084       .  S
O337       Ni343   1.937       .  S
O337        C358   1.275       .  A
O338       Ni361   1.908       .  S
O338        C347   1.268       .  A
O339       Ni343   1.893       .  S
O339       Ni361   1.902       .  S
O339       Ni355   1.898       .  S
O339        H362   0.964       .  S
C340        C549   1.485       .  S
C340        O357   1.276       .  A
C340        O349   1.272       .  A
O341       Ni360   1.915       .  S
O341        C347   1.268       .  A
O342       Ni360   1.917       .  S
O342        C344   1.270       .  A
Ni343       O346   1.937       .  S
Ni343       O348   1.896       .  S
C344        C496   1.490       .  S
C344        O354   1.271       .  A
O345       Ni361   1.907       .  S
O345        C351   1.273       .  A
O346        C351   1.275       .  A
C347        C879   1.469       .  S
O348        C350   1.269       .  A
O349       Ni360   1.915       .  S
C350        C729   1.475       .  S
C350        O356   1.275       .  A
C351        C929   1.472       .  S
H352        O353   0.965       .  S
O353       Ni361   1.910       .  S
O353       Ni355   1.907       .  S
O353       Ni360   1.901       .  S
O354       Ni355   1.924       .  S
Ni355       O359   1.906       .  S
Ni355       O357   1.919       .  S
O356       Ni361   1.947       .  S
C358        C469   1.475       .  S
C358        O359   1.271       .  A
C363        C364   1.402       .  A
C363        C368   1.405       .  A
C363        C526   1.480       .  S
C364        C365   1.399       .  A
C364        H369   1.084       .  S
C365        C366   1.403       .  A
C365        C456   1.477       .  S
C366        C367   1.404       .  A
C366        H370   1.084       .  S
C367        C368   1.403       .  A
C367        C799   1.484       .  S
C368        H371   1.084       .  S
C372        C373   1.407       .  A
C372        C377   1.397       .  A
C372        C769   1.482       .  S
C373        C374   1.409       .  A
C373        H378   1.083       .  S
C374        C375   1.404       .  A
C374        C459   1.477       .  S
C375        C376   1.397       .  A
C375        H379   1.084       .  S
C376        C377   1.395       .  A
C376        C446   1.479       .  S
C377        H380   1.085       .  S
C381        C382   1.406       .  A
C381        C386   1.405       .  A
C381        C639   1.489       .  S
C382        C383   1.405       .  A
C382        H387   1.084       .  S
C383        C384   1.407       .  A
C383        C686   1.492       .  S
C384        C385   1.409       .  A
C384        H388   1.084       .  S
C385        C386   1.407       .  A
C385        C436   1.489       .  S
C386        H389   1.084       .  S
C390        C391   1.408       .  A
C390        C395   1.403       .  A
C390        C809   1.484       .  S
C391        C392   1.410       .  A
C391        H396   1.083       .  S
C392        C393   1.410       .  A
C392        C439   1.494       .  S
C393        C394   1.408       .  A
C393        H397   1.084       .  S
C394        C395   1.400       .  A
C394        C426   1.490       .  S
C395        H398   1.084       .  S
O399       Ni405   1.934       .  S
O399        C420   1.269       .  A
O400       Ni423   1.913       .  S
O400        C409   1.269       .  A
O401       Ni405   1.914       .  S
O401       Ni423   1.911       .  S
O401       Ni417   1.893       .  S
O401        H424   0.946       .  S
C402        C846   1.468       .  S
C402        O419   1.257       .  A
C402        O411   1.269       .  A
O403       Ni422   1.899       .  S
O403        C409   1.266       .  A
O404       Ni422   1.908       .  S
O404        C406   1.268       .  A
Ni405       O408   1.924       .  S
Ni405       O410   1.886       .  S
C406        C429   1.499       .  S
C406        O416   1.280       .  A
O407       Ni423   1.892       .  S
O407        C413   1.266       .  A
O408        C413   1.273       .  A
C409        C949   1.473       .  S
O410        C412   1.266       .  A
O411       Ni422   1.919       .  S
C412        C999   1.468       .  S
C412        O418   1.279       .  A
C413        C899   1.465       .  S
H414        O415   0.966       .  S
O415       Ni423   1.911       .  S
O415       Ni417   1.906       .  S
O415       Ni422   1.919       .  S
O416       Ni417   1.968       .  S
Ni417       O421   1.887       .  S
Ni417       O419   1.886       .  S
O418       Ni423   1.952       .  S
C420        C449   1.467       .  S
C420        O421   1.258       .  A
C425        C426   1.410       .  A
C425        C430   1.414       .  A
C425       Br432   1.930       .  S
C426        C427   1.407       .  A
C427        C428   1.409       .  A
C427       Br434   1.930       .  S
C428        C429   1.417       .  A
C428       Br433   1.917       .  S
C429        C430   1.418       .  A
C430       Br431   1.932       .  S
C435        C436   1.409       .  A
C435        C440   1.410       .  A
C435       Br442   1.931       .  S
C436        C437   1.411       .  A
C437        C438   1.413       .  A
C437       Br444   1.928       .  S
C438        C439   1.412       .  A
C438       Br443   1.929       .  S
C439        C440   1.413       .  A
C440       Br441   1.925       .  S
C445        C446   1.412       .  A
C445        C450   1.405       .  A
C445       Br452   1.931       .  S
C446        C447   1.414       .  A
C447        C448   1.403       .  A
C447       Br454   1.934       .  S
C448        C449   1.406       .  A
C448       Br453   1.928       .  S
C449        C450   1.406       .  A
C450       Br451   1.929       .  S
C455        C456   1.410       .  A
C455        C460   1.407       .  A
C455       Br462   1.930       .  S
C456        C457   1.408       .  A
C457        C458   1.407       .  A
C457       Br464   1.929       .  S
C458        C459   1.410       .  A
C458       Br463   1.930       .  S
C459        C460   1.409       .  A
C460       Br461   1.929       .  S
C465        C466   1.413       .  A
C465        C470   1.408       .  A
C465       Br472   1.927       .  S
C466        C467   1.413       .  A
C467        C468   1.408       .  A
C467       Br474   1.930       .  S
C468        C469   1.409       .  A
C468       Br473   1.932       .  S
C469        C470   1.407       .  A
C470       Br471   1.925       .  S
C475        C476   1.410       .  A
C475        C480   1.408   1_565  A
C475       Br482   1.928       .  S
C476        C477   1.405       .  A
C477        C478   1.405   1_565  A
C477       Br484   1.930       .  S
C478        C479   1.411       .  A
C478       Br483   1.927       .  S
C479        C480   1.408       .  A
C480       Br481   1.928       .  S
C485        C486   1.430       .  A
C485        C490   1.409       .  A
C485       Br492   1.935       .  S
C486        C487   1.430       .  A
C487        C488   1.410       .  A
C487       Br494   1.937       .  S
C488        C489   1.402       .  A
C488       Br493   1.935       .  S
C489        C490   1.401       .  A
C490       Br491   1.935       .  S
C495        C496   1.411       .  A
C495        C500   1.409       .  A
C495       Br502   1.933       .  S
C496        C497   1.416       .  A
C497        C498   1.409       .  A
C497       Br504   1.929       .  S
C498        C499   1.414       .  A
C498       Br503   1.933       .  S
C499        C500   1.418       .  A
C500       Br501   1.934       .  S
C505        C506   1.405       .  A
C505        C510   1.400       .  A
C505       Br512   1.933       .  S
C506        C507   1.409       .  A
C507        C508   1.409       .  A
C507       Br514   1.927       .  S
C508        C509   1.409       .  A
C508       Br513   1.929       .  S
C509        C510   1.413       .  A
C510       Br511   1.934       .  S
C515        C516   1.412       .  A
C515        C520   1.412       .  A
C515       Br522   1.928       .  S
C516        C517   1.407       .  A
C517        C518   1.409       .  A
C517       Br524   1.928       .  S
C518        C519   1.411       .  A
C518       Br523   1.927       .  S
C519        C520   1.409       .  A
C520       Br521   1.928       .  S
C525        C526   1.412       .  A
C525        C530   1.408       .  A
C525       Br532   1.931       .  S
C526        C527   1.411       .  A
C527        C528   1.405       .  A
C527       Br534   1.933       .  S
C528        C529   1.411       .  A
C528       Br533   1.931       .  S
C529        C530   1.409       .  A
C530       Br531   1.930       .  S
C535        C536   1.412       .  A
C535        C540   1.408       .  A
C535       Br542   1.928       .  S
C536        C537   1.412       .  A
C537        C538   1.410       .  A
C537       Br544   1.929       .  S
C538        C539   1.410       .  A
C538       Br543   1.929       .  S
C539        C540   1.408       .  A
C540       Br541   1.929       .  S
C545        C546   1.404       .  A
C545        C550   1.405       .  A
C545       Br552   1.931       .  S
C546        C547   1.400       .  A
C547        C548   1.401       .  A
C547       Br554   1.932       .  S
C548        C549   1.416       .  A
C548       Br553   1.922       .  S
C549        C550   1.419       .  A
C550       Br551   1.933       .  S
C555        C556   1.414   1_545  A
C555        C560   1.406       .  A
C555       Br562   1.929   1_545  S
C556        C557   1.407   1_565  A
C557        C558   1.400       .  A
C557       Br564   1.932   1_545  S
C558        C559   1.409       .  A
C558       Br563   1.933       .  S
C559        C560   1.404       .  A
C560       Br561   1.927       .  S
C565        C566   1.421   1_545  A
C565        C570   1.399       .  A
C565       Br572   1.939   1_545  S
C566        C567   1.418   1_565  A
C567        C568   1.413       .  A
C567       Br574   1.932       .  S
C568        C569   1.414       .  A
C568       Br573   1.927       .  S
C569        C570   1.414       .  A
C570       Br571   1.941       .  S
C575        C576   1.411       .  A
C575        C580   1.404       .  A
C575       Br582   1.928       .  S
C576        C577   1.410       .  A
C577        C578   1.407       .  A
C577       Br584   1.930       .  S
C578        C579   1.408       .  A
C578       Br583   1.930   1_556  S
C579        C580   1.406       .  A
C580       Br581   1.931   1_556  S
C585        C586   1.409       .  A
C585        C590   1.408       .  A
C585       Br592   1.929       .  S
C586        C587   1.408       .  A
C587        C588   1.407       .  A
C587       Br594   1.923       .  S
C588        C589   1.408       .  A
C588       Br593   1.929       .  S
C589        C590   1.409       .  A
C590       Br591   1.929       .  S
C595        C596   1.409       .  A
C595        C600   1.406       .  A
C595       Br602   1.932       .  S
C596        C597   1.409       .  A
C597        C598   1.408       .  A
C597       Br604   1.931       .  S
C598        C599   1.415       .  A
C598       Br603   1.931       .  S
C599        C600   1.412       .  A
C600       Br601   1.930       .  S
C605        C606   1.409       .  A
C605        C610   1.406       .  A
C605       Br612   1.929       .  S
C606        C607   1.410       .  A
C607        C608   1.408       .  A
C607       Br614   1.928       .  S
C608        C609   1.408       .  A
C608       Br613   1.929       .  S
C609        C610   1.408       .  A
C610       Br611   1.930       .  S
C615        C616   1.413       .  A
C615        C620   1.409       .  A
C615       Br622   1.932       .  S
C616        C617   1.418       .  A
C617        C618   1.407       .  A
C617       Br624   1.934       .  S
C618        C619   1.407       .  A
C618       Br623   1.933       .  S
C619        C620   1.410       .  A
C620       Br621   1.930       .  S
C625        C626   1.419       .  A
C625        C630   1.411       .  A
C625       Br632   1.930       .  S
C626        C627   1.422       .  A
C627        C628   1.407       .  A
C627       Br634   1.941       .  S
C628        C629   1.412       .  A
C628       Br633   1.933       .  S
C629        C630   1.413       .  A
C630       Br631   1.935       .  S
C635        C636   1.409       .  A
C635        C640   1.408       .  A
C635       Br642   1.930       .  S
C636        C637   1.408       .  A
C637        C638   1.412       .  A
C637       Br644   1.921       .  S
C638        C639   1.412       .  A
C638       Br643   1.927       .  S
C639        C640   1.411       .  A
C640       Br641   1.926       .  S
C645        C646   1.409   1_554  A
C645        C650   1.407       .  A
C645       Br652   1.929   1_554  S
C646        C647   1.406   1_556  A
C647        C648   1.405       .  A
C647       Br654   1.931   1_554  S
C648        C649   1.411       .  A
C648       Br653   1.931       .  S
C649        C650   1.407       .  A
C650       Br651   1.923       .  S
C655        C656   1.403       .  A
C655        C660   1.406       .  A
C655       Br662   1.933       .  S
C656        C657   1.408       .  A
C657        C658   1.414       .  A
C657       Br664   1.929       .  S
C658        C659   1.418       .  A
C658       Br663   1.927       .  S
C659        C660   1.423       .  A
C660       Br661   1.935       .  S
C665        C666   1.416   1_554  A
C665        C670   1.409       .  A
C665       Br672   1.934       .  S
C666        C667   1.414   1_556  A
C667        C668   1.407       .  A
C667       Br674   1.935   1_554  S
C668        C669   1.416       .  A
C668       Br673   1.935       .  S
C669        C670   1.413       .  A
C670       Br671   1.933       .  S
C675        C676   1.409       .  A
C675        C680   1.405   1_655  A
C675       Br682   1.930       .  S
C676        C677   1.408       .  A
C677        C678   1.403   1_655  A
C677       Br684   1.931       .  S
C678        C679   1.407       .  A
C678       Br683   1.930       .  S
C679        C680   1.408       .  A
C680       Br681   1.930       .  S
C685        C686   1.407       .  A
C685        C690   1.409       .  A
C685       Br692   1.930       .  S
C686        C687   1.409       .  A
C687        C688   1.416       .  A
C687       Br694   1.930       .  S
C688        C689   1.420       .  A
C688       Br693   1.927       .  S
C689        C690   1.422       .  A
C690       Br691   1.937       .  S
C695        C696   1.406       .  A
C695        C700   1.408       .  A
C695       Br702   1.929       .  S
C696        C697   1.404       .  A
C697        C698   1.402       .  A
C697       Br704   1.930       .  S
C698        C699   1.411       .  A
C698       Br703   1.926       .  S
C699        C700   1.415       .  A
C700       Br701   1.929       .  S
C705        C706   1.406       .  A
C705        C710   1.398       .  A
C705       Br712   1.939       .  S
C706        C707   1.407       .  A
C707        C708   1.404       .  A
C707       Br714   1.931       .  S
C708        C709   1.413       .  A
C708       Br713   1.931       .  S
C709        C710   1.420       .  A
C710       Br711   1.937       .  S
C715        C716   1.411   1_655  A
C715        C720   1.407       .  A
C715       Br722   1.929   1_655  S
C716        C717   1.408   1_455  A
C717        C718   1.403       .  A
C717       Br724   1.931   1_655  S
C718        C719   1.409       .  A
C718       Br723   1.933       .  S
C719        C720   1.406       .  A
C720       Br721   1.923       .  S
C725        C726   1.411       .  A
C725        C730   1.409       .  A
C725       Br732   1.927       .  S
C726        C727   1.406       .  A
C727        C728   1.400       .  A
C727       Br734   1.931       .  S
C728        C729   1.406       .  A
C728       Br733   1.919       .  S
C729        C730   1.409       .  A
C730       Br731   1.928       .  S
C735        C736   1.408       .  A
C735        C740   1.407   1_455  A
C735       Br742   1.928       .  S
C736        C737   1.407       .  A
C737        C738   1.401   1_455  A
C737       Br744   1.931       .  S
C738        C739   1.407       .  A
C738       Br743   1.931       .  S
C739        C740   1.407       .  A
C740       Br741   1.928       .  S
C745        C746   1.408       .  A
C745        C750   1.401       .  A
C745       Br752   1.929       .  S
C746        C747   1.406       .  A
C747        C748   1.405       .  A
C747       Br754   1.928       .  S
C748        C749   1.408       .  A
C748       Br753   1.928       .  S
C749        C750   1.406       .  A
C750       Br751   1.930       .  S
C755        C756   1.414       .  A
C755        C760   1.411       .  A
C755       Br762   1.933       .  S
C756        C757   1.414       .  A
C757        C758   1.405       .  A
C757       Br764   1.935       .  S
C758        C759   1.410       .  A
C758       Br763   1.930       .  S
C759        C760   1.414       .  A
C760       Br761   1.931       .  S
C765        C766   1.415       .  A
C765        C770   1.407       .  A
C765       Br772   1.930       .  S
C766        C767   1.416       .  A
C767        C768   1.408       .  A
C767       Br774   1.932       .  S
C768        C769   1.408       .  A
C768       Br773   1.931       .  S
C769        C770   1.412       .  A
C770       Br771   1.935       .  S
C775        C776   1.415       .  A
C775        C780   1.402       .  A
C775       Br782   1.930       .  S
C776        C777   1.409       .  A
C777        C778   1.410       .  A
C777       Br784   1.926       .  S
C778        C779   1.409       .  A
C778       Br783   1.928       .  S
C779        C780   1.406       .  A
C780       Br781   1.937       .  S
C785        C786   1.418       .  A
C785        C790   1.404       .  A
C785       Br792   1.934       .  S
C786        C787   1.415       .  A
C787        C788   1.413       .  A
C787       Br794   1.926       .  S
C788        C789   1.409       .  A
C788       Br793   1.928       .  S
C789        C790   1.404       .  A
C790       Br791   1.932       .  S
C795        C796   1.423       .  A
C795        C800   1.411       .  A
C795       Br802   1.934       .  S
C796        C797   1.421       .  A
C797        C798   1.409       .  A
C797       Br804   1.923       .  S
C798        C799   1.406       .  A
C798       Br803   1.936       .  S
C799        C800   1.406       .  A
C800       Br801   1.932       .  S
C805        C806   1.415       .  A
C805        C810   1.412       .  A
C805       Br812   1.930       .  S
C806        C807   1.416       .  A
C807        C808   1.410       .  A
C807       Br814   1.927       .  S
C808        C809   1.407       .  A
C808       Br813   1.932       .  S
C809        C810   1.408       .  A
C810       Br811   1.928       .  S
C815        C816   1.411       .  A
C815        C820   1.407       .  A
C815       Br822   1.933       .  S
C816        C817   1.411       .  A
C817        C818   1.407       .  A
C817       Br824   1.917       .  S
C818        C819   1.408       .  A
C818       Br823   1.931       .  S
C819        C820   1.414       .  A
C820       Br821   1.933       .  S
C825        C826   1.407       .  A
C825        C830   1.401       .  A
C825       Br832   1.933       .  S
C826        C827   1.409       .  A
C827        C828   1.401       .  A
C827       Br834   1.930       .  S
C828        C829   1.405       .  A
C828       Br833   1.930       .  S
C829        C830   1.411       .  A
C830       Br831   1.933       .  S
C835        C836   1.410       .  A
C835        C840   1.402       .  A
C835       Br842   1.931       .  S
C836        C837   1.407       .  A
C837        C838   1.401       .  A
C837       Br844   1.933       .  S
C838        C839   1.413       .  A
C838       Br843   1.933       .  S
C839        C840   1.409       .  A
C840       Br841   1.933       .  S
C845        C846   1.412       .  A
C845        C850   1.397       .  A
C845       Br852   1.934       .  S
C846        C847   1.415       .  A
C847        C848   1.399       .  A
C847       Br854   1.929       .  S
C848        C849   1.404       .  A
C848       Br853   1.934       .  S
C849        C850   1.405       .  A
C850       Br851   1.932       .  S
C855        C856   1.407       .  A
C855        C860   1.397       .  A
C855       Br862   1.933       .  S
C856        C857   1.410       .  A
C857        C858   1.407       .  A
C857       Br864   1.928       .  S
C858        C859   1.406       .  A
C858       Br863   1.928       .  S
C859        C860   1.407       .  A
C860       Br861   1.928       .  S
C865        C866   1.405       .  A
C865        C870   1.399       .  A
C865       Br872   1.929       .  S
C866        C867   1.404       .  A
C867        C868   1.395       .  A
C867       Br874   1.931       .  S
C868        C869   1.410       .  A
C868       Br873   1.934   1_556  S
C869        C870   1.405       .  A
C870       Br871   1.928       .  S
C875        C876   1.407       .  A
C875        C880   1.407       .  A
C875       Br882   1.928       .  S
C876        C877   1.406       .  A
C877        C878   1.400       .  A
C877       Br884   1.934       .  S
C878        C879   1.412       .  A
C878       Br883   1.934       .  S
C879        C880   1.411       .  A
C880       Br881   1.930       .  S
C885        C886   1.414       .  A
C885        C890   1.405       .  A
C885       Br892   1.930       .  S
C886        C887   1.412       .  A
C887        C888   1.406       .  A
C887       Br894   1.930       .  S
C888        C889   1.405       .  A
C888       Br893   1.928       .  S
C889        C890   1.406       .  A
C890       Br891   1.933       .  S
C895        C896   1.411       .  A
C895        C900   1.399       .  A
C895       Br902   1.932       .  S
C896        C897   1.409       .  A
C897        C898   1.406       .  A
C897       Br904   1.929       .  S
C898        C899   1.411       .  A
C898       Br903   1.930       .  S
C899        C900   1.408       .  A
C900       Br901   1.936       .  S
C905        C906   1.414       .  A
C905        C910   1.398       .  A
C905       Br912   1.938       .  S
C906        C907   1.411       .  A
C907        C908   1.406       .  A
C907       Br914   1.929       .  S
C908        C909   1.406       .  A
C908       Br913   1.928       .  S
C909        C910   1.406       .  A
C910       Br911   1.934       .  S
C915        C916   1.411       .  A
C915        C920   1.403       .  A
C915       Br922   1.927       .  S
C916        C917   1.406       .  A
C917        C918   1.404       .  A
C917       Br924   1.928       .  S
C918        C919   1.409       .  A
C918       Br923   1.927       .  S
C919        C920   1.404       .  A
C920       Br921   1.930       .  S
C925        C926   1.413       .  A
C925        C930   1.404       .  A
C925       Br932   1.935       .  S
C926        C927   1.417       .  A
C927        C928   1.410       .  A
C927       Br934   1.931       .  S
C928        C929   1.406       .  A
C928       Br933   1.929       .  S
C929        C930   1.411       .  A
C930       Br931   1.937       .  S
C935        C936   1.410       .  A
C935        C940   1.410       .  A
C935       Br942   1.928       .  S
C936        C937   1.407       .  A
C937        C938   1.404       .  A
C937       Br944   1.932       .  S
C938        C939   1.411       .  A
C938       Br943   1.929       .  S
C939        C940   1.408       .  A
C940       Br941   1.927       .  S
C945        C946   1.407       .  A
C945        C950   1.398       .  A
C945       Br952   1.934       .  S
C946        C947   1.409       .  A
C947        C948   1.411       .  A
C947       Br954   1.926       .  S
C948        C949   1.410       .  A
C948       Br953   1.927       .  S
C949        C950   1.413       .  A
C950       Br951   1.938       .  S
C955        C956   1.419       .  A
C955        C960   1.406       .  A
C955       Br962   1.932       .  S
C956        C957   1.410       .  A
C957        C958   1.403       .  A
C957       Br964   1.934       .  S
C958        C959   1.413       .  A
C958       Br963   1.932       .  S
C959        C960   1.407       .  A
C960       Br961   1.936       .  S
C965        C966   1.409   1_455  A
C965        C970   1.410       .  A
C965       Br972   1.930   1_455  S
C966        C967   1.409   1_655  A
C967        C968   1.407       .  A
C967       Br974   1.929   1_455  S
C968        C969   1.410       .  A
C968       Br973   1.930       .  S
C969        C970   1.413       .  A
C970       Br971   1.930       .  S
C975        C976   1.422       .  A
C975        C980   1.407       .  A
C975       Br982   1.936       .  S
C976        C977   1.422       .  A
C977        C978   1.414       .  A
C977       Br984   1.933       .  S
C978        C979   1.407       .  A
C978       Br983   1.931       .  S
C979        C980   1.407       .  A
C980       Br981   1.935       .  S
C985        C986   1.411       .  A
C985        C990   1.410       .  A
C985       Br992   1.929       .  S
C986        C987   1.409       .  A
C987        C988   1.403       .  A
C987       Br994   1.936       .  S
C988        C989   1.419       .  A
C988       Br993   1.934       .  S
C989        C990   1.412       .  A
C990       Br991   1.924       .  S
C995        C996   1.407       .  A
C995       C1000   1.405       .  A
C995      Br1002   1.929       .  S
C996        C997   1.408       .  A
C997        C998   1.406       .  A
C997      Br1004   1.929       .  S
C998        C999   1.409       .  A
C998      Br1003   1.929       .  S
C999       C1000   1.409       .  A
C1000     Br1001   1.926       .  S
C1005      C1006   1.417       .  A
C1005      C1010   1.410       .  A
C1005     Br1012   1.933       .  S
C1006      C1007   1.418       .  A
C1007      C1008   1.410       .  A
C1007     Br1014   1.933       .  S
C1008      C1009   1.407       .  A
C1008     Br1013   1.931       .  S
C1009      C1010   1.408       .  A
C1010     Br1011   1.926       .  S
C1015      C1016   1.408       .  A
C1015      C1020   1.409       .  A
C1015     Br1022   1.927       .  S
C1016      C1017   1.410       .  A
C1017      C1018   1.405   1_565  A
C1017     Br1024   1.930       .  S
C1018      C1019   1.408       .  A
C1018     Br1023   1.930       .  S
C1019      C1020   1.409   1_545  A
C1020     Br1021   1.928   1_565  S
