geometry optimzed in LAMMPS
_audit_creation_date              2020-11-30 
_audit_creation_method            'lammps2cif' 
_symmetry_space_group_name_H-M    'P1' 
_symmetry_Int_Tables_number       1 
_symmetry_cell_setting            triclinic 
loop_ 
_symmetry_equiv_pos_as_xyz 
  x,y,z 
_cell_length_a                    46.80971514 
_cell_length_b                    46.395664870002015 
_cell_length_c                    31.438701952323388 
_cell_angle_alpha                 89.99928650645204 
_cell_angle_beta                  89.9985631542422 
_cell_angle_gamma                 89.99998310604524 
loop_ 
_atom_site_label 
_atom_site_type_symbol 
_atom_site_fract_x 
_atom_site_fract_y 
_atom_site_fract_z 
_atom_site_charge 
C1          C  0.14656811  0.28199906  0.33189902     0.02900
C2          C  0.15684663  0.30807381  0.34872797    -0.13300
C3          C  0.14213692  0.32159437  0.38183602     0.00400
C4          C  0.11689687  0.30942398  0.39726999    -0.11800
C5          C  0.10621692  0.28372711  0.38028974     0.02900
C6          C  0.12142795  0.26954634  0.34805205    -0.11200
H7          H  0.17624577  0.31766715  0.33628857     0.08500
H8          H  0.10501910  0.32052651  0.42198124     0.06000
H9          H  0.11300388  0.24996045  0.33405709     0.05800
C10         C  0.31530590  0.21663448  0.04643552     0.02900
C11         C  0.33960602  0.23045767  0.02960239    -0.13300
C12         C  0.35482893  0.21735994  0.49615726     0.00400
C13         C  0.34473365  0.19156501  0.47845268    -0.11800
C14         C  0.32055356  0.17792415  0.49477076     0.02900
C15         C  0.30617010  0.19022441  0.52926369    -0.11200
H16         H  0.34743581  0.25018169  0.04390301     0.08500
H17         H  0.35652995  0.18133140  0.45285582     0.06000
H18         H  0.28752520  0.17950538  0.04226499     0.05800
Zr19       Zr  0.17672680  0.27191541  0.18755157     2.17500
O20         O  0.13588457  0.30326462  0.20166384    -0.51600
O21         O  0.13590717  0.24621676  0.15696991    -0.74800
O22         O  0.17270616  0.31117014  0.13637083    -0.81600
O23         O  0.17854250  0.24753028  0.30550267    -0.83300
O24         O  0.20627620  0.30457646  0.08491745    -0.78900
O25         O  0.15943290  0.28031155  0.25977018    -0.90600
O26         O  0.15045345  0.20136247  0.13792321    -0.76500
O27         O  0.19454047  0.24618552  0.12757232    -0.86000
O28         O  0.18196891  0.22310475  0.21024533    -0.85700
O29         O  0.22159083  0.29484625  0.17042405    -0.72500
O30         O  0.21023598  0.27265231  0.24520538    -0.84600
Zr31       Zr  0.27909919  0.21955097  0.18890450     2.26400
Zr32       Zr  0.23942442  0.26819743  0.11055269     2.06300
Zr33       Zr  0.21627878  0.22369104  0.26662123     2.10000
Zr34       Zr  0.20074076  0.19769587  0.15078157     1.78800
O35         O  0.22939617  0.23427051  0.33992793    -0.93400
O36         O  0.19399694  0.18676783  0.07562095    -0.41200
O37         O  0.23461961  0.19681686  0.20760434    -0.77900
O38         O  0.24508879  0.21882645  0.13120489    -0.96500
O39         O  0.27370563  0.26854857  0.16728947    -0.89900
O40         O  0.26143356  0.24495475  0.24936291    -0.92700
C41         C  0.13141984  0.22087531  0.14201882     1.01100
C42         C  0.16201356  0.26867998  0.29666545     1.14000
C43         C  0.18498942  0.31802301  0.10132597     1.04800
O44         O  0.22421023  0.25537823  0.03895984    -0.94800
O45         O  0.28054908  0.24846533  0.07318199    -0.90600
O46         O  0.30135613  0.21632893  0.11844279    -0.83700
C47         C  0.29882803  0.22871749  0.08198896     1.11400
O48         O  0.23710027  0.33905561  0.25504295    -0.96800
Zr49       Zr  0.25515162  0.29352704  0.22735433     1.88900
O50         O  0.31979993  0.24395362  0.22243303    -0.73500
O51         O  0.26877414  0.30848434  0.08687934    -0.52700
O52         O  0.27236156  0.33588913  0.18929561    -0.97400
O53         O  0.26119468  0.30032285  0.30379612    -0.54600
O54         O  0.30583691  0.28993855  0.23563425    -0.74000
C55         C  0.32461964  0.27000250  0.23428434     0.98400
O56         O  0.31769821  0.18579648  0.17334921    -0.62800
O57         O  0.18542401  0.18368635  0.28701063    -0.57600
O58         O  0.27996079  0.17878617  0.23860332    -0.94300
O59         O  0.24924421  0.18800726  0.29293827    -0.92700
O60         O  0.18010259  0.15653505  0.18764696    -0.93100
O61         O  0.22395453  0.15325009  0.12872503    -0.91900
C62         C  0.26903060  0.17322662  0.27526626     1.17200
H63         H  0.16403782  0.21511981  0.21986081     0.33100
H64         H  0.25136938  0.20722303  0.10753720     0.44000
H65         H  0.27436233  0.24337753  0.27317922     0.37500
H66         H  0.21976412  0.31508164  0.16408322     0.34000
H67         H  0.18079211  0.17009050  0.07519475     0.25800
H68         H  0.26389656  0.31091366  0.05642407     0.31700
H69         H  0.29116552  0.34036797  0.20210716     0.37600
H70         H  0.16728903  0.14745985  0.16646511     0.32100
H71         H  0.19420883  0.16651627  0.27364552     0.31000
H72         H  0.22027023  0.21886715  0.35697139     0.32700
H73         H  0.27820922  0.28884104  0.31168543     0.31600
H74         H  0.24394105  0.15522633  0.13863277     0.35600
H75         H  0.32924805  0.18467136  0.19974177     0.28400
H76         H  0.12392528  0.30257232  0.17567329     0.32600
H77         H  0.25398038  0.34913727  0.26686412     0.35400
H78         H  0.18885191  0.18108090  0.31784419     0.28000
H79         H  0.30855603  0.16666717  0.17063978     0.40900
H80         H  0.22721748  0.23430012  0.03711443     0.31000
H81         H  0.18250355  0.20298793  0.06439368     0.38600
H82         H  0.24492062  0.28993435  0.31680524     0.30400
H83         H  0.26047742  0.32561178  0.10099836     0.30500
H84         H  0.14353543  0.32314447  0.20260164     0.30800
C85         C  0.15205646  0.34869904  0.40101213     0.02900
C86         C  0.16150477  0.34819314  0.44323301    -0.13300
C87         C  0.16248222  0.37352329  0.96810298     0.00400
C88         C  0.15495804  0.39968756  0.44793882    -0.11800
C89         C  0.14760740  0.40059805  0.40465864     0.02900
C90         C  0.14601753  0.37499159  0.38127848    -0.11200
H91         H  0.16666419  0.32735945  0.45624900     0.08500
H92         H  0.15374155  0.41963640  0.46547862     0.06000
H93         H  0.13796241  0.37531709  0.34894670     0.05800
C94         C  0.17652648  0.34509635  0.08094588     0.02900
C95         C  0.17032364  0.34595345  0.03745322    -0.13300
C96         C  0.16931212  0.37242436  0.01506176     0.00400
C97         C  0.17551185  0.39782310  0.03825184    -0.11800
C98         C  0.18014138  0.39707679  0.08237832     0.02900
C99         C  0.17995921  0.37070675  0.10368142    -0.11200
H100        H  0.16677852  0.32552408  0.02207626     0.08500
H101        H  0.17752963  0.41840921  0.02256587     0.06000
H102        H  0.18552057  0.36990816  0.13716441     0.05800
C103        C  0.14319421  0.46656520  0.33372897     0.02900
C104        C  0.11881592  0.98033471  0.35037661    -0.13300
C105        C  0.10360834  0.46728726  0.38387036     0.00400
C106        C  0.11377412  0.44158458  0.40178308    -0.11800
C107        C  0.13803241  0.42799244  0.38562566     0.02900
C108        C  0.15242977  0.44026038  0.35112147    -0.11200
H109        H  0.11093521  0.99998789  0.33592461     0.08500
H110        H  0.10197188  0.43137711  0.42739544     0.06000
H111        H  0.17113439  0.42957803  0.33824337     0.05800
C112        C  0.31201001  0.03198670  0.04852468     0.02900
C113        C  0.30168484  0.05800702  0.53158760    -0.13300
C114        C  0.31642737  0.07154784  0.49853396     0.00400
C115        C  0.34176063  0.05946259  0.48328505    -0.11800
C116        C  0.35245473  0.03379766  0.50034745     0.02900
C117        C  0.33722032  0.51959889  0.03253206    -0.11200
H118        H  0.28223316  0.06755354  0.04392224     0.08500
H119        H  0.35367839  0.07058841  0.45863941     0.06000
H120        H  0.34567048  0.50004722  0.04659968     0.05800
Zr121      Zr  0.28168102  0.02211801  0.19273558     2.17500
O122        O  0.32235345  0.05378040  0.17900003    -0.51600
O123        O  0.32261926  0.99653136  0.22326356    -0.74800
O124        O  0.28557974  0.06134924  0.24392950    -0.81600
O125        O  0.28027302  0.49733022  0.07503418    -0.83300
O126        O  0.25199714  0.05476396  0.29534479    -0.78900
O127        O  0.29890842  0.03054398  0.12053207    -0.90600
O128        O  0.30821524  0.45161418  0.24220396    -0.76500
O129        O  0.26389384  0.99647053  0.25278101    -0.86000
O130        O  0.27664449  0.47326229  0.17017269    -0.85700
O131        O  0.23673614  0.04495646  0.20965839    -0.72500
O132        O  0.24821040  0.02258805  0.13499480    -0.84600
Zr133      Zr  0.17951777  0.46937601  0.19138745     2.26400
Zr134      Zr  0.21891599  0.01837399  0.26960007     2.06300
Zr135      Zr  0.24238457  0.47356501  0.11372993     2.10000
Zr136      Zr  0.25791970  0.44792247  0.22970330     1.78800
O137        O  0.22919726  0.48393716  0.04037929    -0.93400
O138        O  0.26489500  0.43747145  0.30494914    -0.41200
O139        O  0.22408886  0.44675427  0.17283712    -0.77900
O140        O  0.21349563  0.46893847  0.24908765    -0.96500
O141        O  0.18466024  0.01845410  0.21282808    -0.89900
O142        O  0.19715436  0.49471262  0.13085203    -0.92700
C143        C  0.32719124  0.47117534  0.23812150     1.01100
C144        C  0.29656561  0.01869100  0.08376087     1.14000
C145        C  0.27329449  0.06819763  0.27895997     1.04800
O146        O  0.23361669  0.00595784  0.34158250    -0.94800
O147        O  0.17798405  0.99833188  0.30702193    -0.90600
O148        O  0.15707627  0.46629956  0.26170330    -0.83700
C149        C  0.15966607  0.47863237  0.29818221     1.11400
O150        O  0.22132158  0.08849774  0.12369941    -0.96800
Zr151      Zr  0.20320266  0.04334916  0.15266838     1.88900
O152        O  0.13866567  0.49347107  0.15778303    -0.73500
O153        O  0.18957354  0.05884689  0.29266531    -0.52700
O154        O  0.18618639  0.08600028  0.19020696    -0.97400
O155        O  0.19658826  0.04983701  0.07628090    -0.54600
O156        O  0.15244254  0.03959071  0.14520738    -0.74000
C157        C  0.13372270  0.01957957  0.14633250     0.98400
O158        O  0.14153657  0.43501347  0.20743351    -0.62800
O159        O  0.27333869  0.43357069  0.09358139    -0.57600
O160        O  0.17868152  0.42861382  0.14176210    -0.94300
O161        O  0.20941620  0.43784412  0.08746480    -0.92700
O162        O  0.27862347  0.40672438  0.19299834    -0.93100
O163        O  0.23488832  0.40358068  0.25255461    -0.91900
C164        C  0.18962335  0.42305955  0.10512216     1.17200
H165        H  0.29461031  0.46532572  0.16060421     0.33100
H166        H  0.20722000  0.45732575  0.27274900     0.44000
H167        H  0.18422871  0.49303316  0.10704634     0.37500
H168        H  0.23853320  0.06520415  0.21594039     0.34000
H169        H  0.27816959  0.42085287  0.30551555     0.25800
H170        H  0.19457119  0.06159968  0.32301742     0.31700
H171        H  0.16741586  0.09049291  0.17729793     0.37600
H172        H  0.29170712  0.39789141  0.21403840     0.32100
H173        H  0.26423031  0.41630979  0.10619441     0.31000
H174        H  0.23819341  0.46840971  0.02343045     0.32700
H175        H  0.17964013  0.03816174  0.06870445     0.31600
H176        H  0.21584659  0.40402870  0.23884608     0.35600
H177        H  0.12990788  0.43359132  0.18114820     0.28400
H178        H  0.33419116  0.05324381  0.20512398     0.32600
H179        H  0.20434171  0.09887217  0.11277797     0.35400
H180        H  0.27044184  0.43132360  0.06256490     0.28000
H181        H  0.15100743  0.41605311  0.21024237     0.40900
H182        H  0.23174396  0.98473307  0.34304654     0.31000
H183        H  0.27635170  0.45380574  0.31589462     0.38600
H184        H  0.21288540  0.03957377  0.06311677     0.30400
H185        H  0.19777654  0.07584932  0.27810236     0.30500
H186        H  0.31455901  0.07359939  0.17785432     0.30800
C187        C  0.28183330  0.09522318  0.29937658     0.02900
C188        C  0.28814000  0.09601990  0.34283718    -0.13300
C189        C  0.28929365  0.12246756  0.36526211     0.00400
C190        C  0.28316472  0.14791277  0.34210945    -0.11800
C191        C  0.27846842  0.14721276  0.29798721     0.02900
C192        C  0.27847213  0.12085317  0.27667669    -0.11200
H193        H  0.29163396  0.07556629  0.35817064     0.08500
H194        H  0.28124378  0.16849974  0.35781568     0.06000
H195        H  0.27283914  0.12009180  0.24321769     0.05800
C196        C  0.30648617  0.09863572  0.47933514     0.02900
C197        C  0.31246722  0.12492173  0.49912951    -0.13300
C198        C  0.31096900  0.15052872  0.47574360     0.00400
C199        C  0.30370752  0.14962869  0.43243070    -0.11800
C200        C  0.29615360  0.12349368  0.41222569     0.02900
C201        C  0.29710147  0.09814411  0.43707228    -0.11200
H202        H  0.32044809  0.12523538  0.03150267     0.08500
H203        H  0.30499783  0.16957525  0.41490094     0.06000
H204        H  0.29197516  0.07731424  0.42401376     0.05800
C205        C  0.06185345  0.21422989  0.08196774     0.02900
C206        C  0.08708002  0.22659249  0.09797534    -0.13300
C207        C  0.10240212  0.21228243  0.12997306     0.00400
C208        C  0.09176474  0.18654535  0.14686649    -0.11800
C209        C  0.06640150  0.17450291  0.13167902     0.02900
C210        C  0.05155661  0.18816333  0.09882158    -0.11200
H211        H  0.09549037  0.24619753  0.08401798     0.08500
H212        H  0.10372980  0.17534941  0.17139163     0.06000
H213        H  0.03206776  0.17866058  0.08654745     0.05800
C214        C  0.39311680  0.27969793  0.29659289     0.02900
C215        C  0.40238879  0.30601074  0.27926742    -0.13300
C216        C  0.38800474  0.31834680  0.24480643     0.00400
C217        C  0.36375238  0.30479283  0.22856672    -0.11800
C218        C  0.35356712  0.27906941  0.24637284     0.02900
C219        C  0.36873576  0.26597081  0.27986843    -0.11200
H220        H  0.42110512  0.31665361  0.29217693     0.08500
H221        H  0.35197442  0.31504124  0.20296498     0.06000
H222        H  0.36082271  0.24631007  0.29425835     0.05800
Zr223      Zr  0.03168113  0.22420902  0.43760562     2.17500
O224        O  0.07240424  0.19270097  0.45173939    -0.51600
O225        O  0.07262022  0.24976635  0.40706413    -0.74800
O226        O  0.03558598  0.18501042  0.38628869    -0.81600
O227        O  0.03015443  0.24893058  0.05540847    -0.83300
O228        O  0.00189899  0.19153181  0.33498420    -0.78900
O229        O  0.04879202  0.21572647  0.00990656    -0.90600
O230        O  0.05820780  0.29472375  0.38834796    -0.76500
O231        O  0.01390855  0.24993338  0.37760344    -0.86000
O232        O  0.02658787  0.27304811  0.46026788    -0.85700
O233        O  0.48675534  0.20138900  0.42052814    -0.72500
O234        O  0.49817573  0.22367928  0.99527634    -0.84600
Zr235      Zr  0.42942398  0.27686359  0.43897226     2.26400
Zr236      Zr  0.46893413  0.22805752  0.36065763     2.06300
Zr237      Zr  0.49228724  0.27267304  0.01664804     2.10000
Zr238      Zr  0.00788555  0.29845262  0.40078350     1.78800
O239        O  0.47947036  0.26210011  0.09006757    -0.93400
O240        O  0.01461875  0.30877990  0.32544729    -0.41200
O241        O  0.47398749  0.29950866  0.45758397    -0.77900
O242        O  0.46344243  0.27746055  0.38131075    -0.96500
O243        O  0.43466991  0.22784278  0.41740634    -0.89900
O244        O  0.44708406  0.25148445  0.49945931    -0.92700
C245        C  0.07718884  0.27515234  0.39232524     1.01100
C246        C  0.04642809  0.22755372  0.04670289     1.14000
C247        C  0.02323616  0.17812292  0.35130741     1.04800
O248        O  0.48383210  0.24092407  0.28893134    -0.94800
O249        O  0.42787199  0.24789558  0.32332029    -0.90600
O250        O  0.40698831  0.27994023  0.36863534    -0.83700
C251        C  0.40956231  0.26760023  0.33215700     1.11400
O252        O  0.47136760  0.15751929  0.00566290    -0.96800
Zr253      Zr  0.45322317  0.20288072  0.47748561     1.88900
O254        O  0.38866301  0.25256989  0.47256895    -0.73500
O255        O  0.43954454  0.18777517  0.33702844    -0.52700
O256        O  0.43596364  0.16049496  0.43954928    -0.97400
O257        O  0.44673272  0.19628527  0.05388173    -0.54600
O258        O  0.40251918  0.20648013  0.48520058    -0.74000
C259        C  0.38377863  0.22646118  0.48409366     0.98400
O260        O  0.39141421  0.31115910  0.42274627    -0.62800
O261        O  0.02310175  0.31270927  0.03705030    -0.57600
O262        O  0.42833926  0.31749881  0.48879621    -0.94300
O263        O  0.45930335  0.30841571  0.04286786    -0.92700
O264        O  0.02890573  0.33962590  0.43717397    -0.93100
O265        O  0.98489807  0.34304095  0.37888841    -0.91900
C266        C  0.43939310  0.32311627  0.02533953     1.17200
H267        H  0.04453868  0.28098787  0.46988035     0.33100
H268        H  0.45713351  0.28908629  0.35768011     0.44000
H269        H  0.43415853  0.25311549  0.02327250     0.37500
H270        H  0.48853958  0.18114525  0.41422024     0.34000
H271        H  0.02810634  0.32521971  0.32473276     0.25800
H272        H  0.44463298  0.18512564  0.30668897     0.31700
H273        H  0.41770965  0.15537141  0.45354674     0.37600
H274        H  0.04198561  0.34835569  0.41603435     0.32100
H275        H  0.01429371  0.32987952  0.02371669     0.31000
H276        H  0.48864716  0.27752161  0.10701425     0.32700
H277        H  0.42979459  0.20794747  0.06155690     0.31600
H278        H  0.46587017  0.34249421  0.39263568     0.35600
H279        H  0.37967632  0.31249160  0.44893544     0.28400
H280        H  0.08445880  0.19348832  0.42585139     0.32600
H281        H  0.45446656  0.14731366  0.01717881     0.35400
H282        H  0.01968916  0.31529291  0.06789328     0.28000
H283        H  0.40084502  0.33015046  0.42011159     0.40900
H284        H  0.98009159  0.26186766  0.28672775     0.31000
H285        H  0.02580952  0.29228940  0.31439967     0.38600
H286        H  0.46304666  0.20653656  0.06701783     0.30400
H287        H  0.44763613  0.17068824  0.35151197     0.30500
H288        H  0.06471185  0.17283276  0.45241360     0.30800
C289        C  0.03174513  0.15107441  0.33089553     0.02900
C290        C  0.02849063  0.12547213  0.35369000    -0.13300
C291        C  0.02850960  0.09908555  0.33246000     0.00400
C292        C  0.03323013  0.09830867  0.28834922    -0.11800
C293        C  0.03924270  0.12372821  0.26507363     0.02900
C294        C  0.03794782  0.15021982  0.28739579    -0.11200
H295        H  0.02289905  0.12626929  0.38716293     0.08500
H296        H  0.03138572  0.07767700  0.27275624     0.06000
H297        H  0.04127481  0.17066845  0.27197952     0.05800
C298        C  0.05647180  0.14741652  0.15092044     0.02900
C299        C  0.04715221  0.14795638  0.19321171    -0.13300
C300        C  0.04611396  0.12262930  0.21809870     0.00400
C301        C  0.05358602  0.09645522  0.19791524    -0.11800
C302        C  0.06088815  0.09551322  0.15461345     0.02900
C303        C  0.06242006  0.12110347  0.13117623    -0.11200
H304        H  0.04213916  0.16881807  0.20624007     0.08500
H305        H  0.05479337  0.07650518  0.21544348     0.06000
H306        H  0.07039514  0.12075335  0.09880040     0.05800
C307        C  0.06535594  0.02946443  0.08382133     0.02900
C308        C  0.05620239  0.05586868  0.10098670    -0.13300
C309        C  0.07047024  0.06809027  0.13564432     0.00400
C310        C  0.09458247  0.05438688  0.15209991    -0.11800
C311        C  0.10473634  0.02863105  0.13433333     0.02900
C312        C  0.08957491  0.51558021  0.10079059    -0.11200
H313        H  0.03762165  0.06663548  0.08786662     0.08500
H314        H  0.10632036  0.06457384  0.17779321     0.06000
H315        H  0.09741523  0.49586125  0.08648688     0.05800
C316        C  0.39652126  0.46430138  0.29862859     0.02900
C317        C  0.37139068  0.97676213  0.28246320    -0.13300
C318        C  0.35621996  0.46261506  0.25015504     0.00400
C319        C  0.36693503  0.43695028  0.23310957    -0.11800
C320        C  0.39213895  0.42474379  0.24862041     0.02900
C321        C  0.40678139  0.43820946  0.28183733    -0.11200
H322        H  0.36294756  0.99633042  0.29648821     0.08500
H323        H  0.35509685  0.42588669  0.20831961     0.06000
H324        H  0.42614215  0.42858118  0.29434895     0.05800
Zr325      Zr  0.42684728  0.47423725  0.44280620     2.17500
O326        O  0.38626565  0.44256803  0.42864548    -0.51600
O327        O  0.38593588  0.49993839  0.47311130    -0.74800
O328        O  0.42282815  0.43502876  0.49405568    -0.81600
O329        O  0.42827342  0.99897947  0.32511525    -0.83300
O330        O  0.45644994  0.44153320  0.04544013    -0.78900
O331        O  0.40964349  0.46576982  0.37062078    -0.90600
O332        O  0.40052710  0.04465301  0.49280455    -0.76500
O333        O  0.44469203  0.49983224  0.50286152    -0.86000
O334        O  0.43197685  0.02311319  0.42035518    -0.85700
O335        O  0.47172319  0.45130136  0.45970500    -0.72500
O336        O  0.46024932  0.47371593  0.38501757    -0.84600
Zr337      Zr  0.02911519  0.02671400  0.44137299     2.26400
Zr338      Zr  0.48961819  0.47783473  0.01963496     2.06300
Zr339      Zr  0.46617811  0.02273989  0.36384570     2.10000
Zr340      Zr  0.45078964  0.04838902  0.47989692     1.78800
O341        O  0.47948959  0.01270180  0.29043581    -0.93400
O342        O  0.44401256  0.05880350  0.05520590    -0.41200
O343        O  0.48458833  0.04947085  0.42295031    -0.77900
O344        O  0.49518380  0.02726313  0.99915591    -0.96500
O345        O  0.02382385  0.47765216  0.46277665    -0.89900
O346        O  0.01135486  0.00145329  0.38087631    -0.92700
C347        C  0.38147028  0.02520520  0.48835726     1.01100
C348        C  0.41197423  0.47761781  0.33384862     1.14000
C349        C  0.43511798  0.42814152  0.02907206     1.04800
O350        O  0.47474500  0.49058820  0.09142636    -0.94800
O351        O  0.03072961  0.49757171  0.05696308    -0.90600
O352        O  0.05141413  0.02986252  0.01180919    -0.83700
C353        C  0.04893277  0.01739860  0.04821640     1.11400
O354        O  0.48705418  0.40762146  0.37385353    -0.96800
Zr355      Zr  0.00518451  0.45281719  0.40261693     1.88900
O356        O  0.06978969  0.00245922  0.40752001    -0.73500
O357        O  0.01883465  0.43724956  0.04260669    -0.52700
O358        O  0.02216085  0.41006466  0.43996891    -0.97400
O359        O  0.01141933  0.44651173  0.32611742    -0.54600
O360        O  0.05589030  0.45641356  0.39467379    -0.74000
C361        C  0.07464780  0.47637661  0.39586733     0.98400
O362        O  0.06766947  0.06053448  0.45686048    -0.62800
O363        O  0.43524531  0.06285610  0.34419662    -0.57600
O364        O  0.02992995  0.06756786  0.39188809    -0.94300
O365        O  0.99921494  0.05836416  0.33755940    -0.92700
O366        O  0.43003310  0.08967478  0.44346354    -0.93100
O367        O  0.47394203  0.09272813  0.00255412    -0.91900
C368        C  0.01902184  0.07311810  0.35522025     1.17200
H369        H  0.41402085  0.03109758  0.41083569     0.33100
H370        H  0.50146899  0.03886189  0.02282678     0.44000
H371        H  0.02425979  0.00313044  0.35704766     0.37500
H372        H  0.46987308  0.43106120  0.46600374     0.34000
H373        H  0.43091318  0.07556133  0.05586587     0.25800
H374        H  0.01365046  0.43430875  0.07284981     0.31700
H375        H  0.04133145  0.40609762  0.42802511     0.37600
H376        H  0.41678085  0.09830050  0.46445706     0.32100
H377        H  0.44475532  0.08013643  0.35607645     0.31000
H378        H  0.47065634  0.02839331  0.27362653     0.32700
H379        H  0.02812440  0.45846861  0.31830439     0.31600
H380        H  0.49232725  0.09299049  0.98697477     0.35600
H381        H  0.07913943  0.06177680  0.43040053     0.28400
H382        H  0.37425544  0.44320501  0.45458805     0.32600
H383        H  0.00398972  0.39740433  0.36246578     0.35400
H384        H  0.43757710  0.06478650  0.31302950     0.28000
H385        H  0.05848427  0.07963013  0.95977046     0.40900
H386        H  0.47765772  0.51168223  0.09324036     0.31000
H387        H  0.43240180  0.04257693  0.06614406     0.38600
H388        H  0.99487067  0.45650625  0.31319856     0.30400
H389        H  0.01073547  0.42033274  0.02770176     0.30500
H390        H  0.39406215  0.42274348  0.42777423     0.30800
C391        C  0.39761782  0.34574094  0.22582962     0.02900
C392        C  0.40497050  0.34664572  0.18256063    -0.13300
C393        C  0.41253345  0.37279095  0.16239480     0.00400
C394        C  0.41157570  0.39812986  0.18725728    -0.14600
C395        C  0.40207821  0.39763784  0.22946239     0.02900
C396        C  0.39602309  0.37134899  0.24920284    -0.11200
H397        H  0.40371239  0.32669905  0.16502701     0.08500
H398        H  0.41675919  0.41895650  0.17423559     0.06000
H399        H  0.38794157  0.37102913  0.28152076     0.05800
C400        C  0.42655268  0.40111377  0.04949605     0.02900
C401        C  0.42041788  0.40030215  0.09301178    -0.13300
C402        C  0.41933267  0.37384657  0.11542448     0.00400
C403        C  0.42541083  0.34841201  0.09223371    -0.11800
C404        C  0.42994421  0.34911545  0.04808504     0.02900
C405        C  0.42981053  0.37547811  0.52675976    -0.11200
H406        H  0.41700083  0.42075184  0.10839424     0.08500
H407        H  0.42742120  0.32782878  0.10792732     0.06000
H408        H  0.43531628  0.37624120  0.49325444     0.05800
C409        C  0.14656814  0.28199901  0.83189916     0.02900
C410        C  0.15684671  0.30807372  0.84872805    -0.13300
C411        C  0.14213703  0.32159434  0.88183607     0.00400
C412        C  0.11689698  0.30942397  0.89727008    -0.11800
C413        C  0.10621704  0.28372709  0.88028994     0.02900
C414        C  0.12142801  0.26954629  0.84805226    -0.11200
H415        H  0.17624585  0.31766700  0.83628865     0.08500
H416        H  0.10501919  0.32052655  0.92198122     0.06000
H417        H  0.11300390  0.24996044  0.83405738     0.05800
C418        C  0.31530585  0.21663439  0.54643551     0.02900
C419        C  0.33960587  0.23045770  0.52960221    -0.13300
C420        C  0.35482904  0.21735990  0.99615738     0.00400
C421        C  0.34473366  0.19156505  0.97845264    -0.11800
C422        C  0.32055357  0.17792422  0.99477069     0.02900
C423        C  0.30617009  0.19022454  0.02926359    -0.11200
H424        H  0.34743557  0.25018177  0.54390276     0.08500
H425        H  0.35652995  0.18133148  0.95285569     0.06000
H426        H  0.28752527  0.17950516  0.54226520     0.05800
Zr427      Zr  0.17672680  0.27191545  0.68755174     2.17500
O428        O  0.13588479  0.30326479  0.70166420    -0.51600
O429        O  0.13590718  0.24621673  0.65697015    -0.74800
O430        O  0.17270612  0.31117009  0.63637086    -0.81600
O431        O  0.17854240  0.24753016  0.80550286    -0.83300
O432        O  0.20627623  0.30457647  0.58491757    -0.78900
O433        O  0.15943303  0.28031159  0.75977042    -0.90600
O434        O  0.15045345  0.20136245  0.63792334    -0.76500
O435        O  0.19454048  0.24618555  0.62757250    -0.86000
O436        O  0.18196893  0.22310481  0.71024538    -0.85700
O437        O  0.22159082  0.29484622  0.67042420    -0.72500
O438        O  0.21023601  0.27265238  0.74520547    -0.84600
Zr439      Zr  0.27909918  0.21955099  0.68890452     2.26400
Zr440      Zr  0.23942445  0.26819745  0.61055285     2.06300
Zr441      Zr  0.21627874  0.22369110  0.76662132     2.10000
Zr442      Zr  0.20074078  0.19769590  0.65078166     1.78800
O443        O  0.22939630  0.23427061  0.83992796    -0.93400
O444        O  0.19399679  0.18676747  0.57562116    -0.41200
O445        O  0.23461959  0.19681696  0.70760442    -0.77900
O446        O  0.24508881  0.21882644  0.63120488    -0.96500
O447        O  0.27370565  0.26854860  0.66728961    -0.89900
O448        O  0.26143354  0.24495481  0.74936298    -0.92700
C449        C  0.13141985  0.22087529  0.64201895     1.01100
C450        C  0.16201357  0.26867992  0.79666563     1.14000
C451        C  0.18498940  0.31802298  0.60132602     1.04800
O452        O  0.22421037  0.25537849  0.53895984    -0.94800
O453        O  0.28054909  0.24846528  0.57318203    -0.90600
O454        O  0.30135606  0.21632879  0.61844276    -0.83700
C455        C  0.29882800  0.22871740  0.58198895     1.11400
O456        O  0.23710006  0.33905576  0.75504236    -0.96800
Zr457      Zr  0.25515162  0.29352711  0.72735438     1.88900
O458        O  0.31979992  0.24395362  0.72243304    -0.73500
O459        O  0.26877422  0.30848444  0.58687989    -0.52700
O460        O  0.27236177  0.33588907  0.68929556    -0.97400
O461        O  0.26119446  0.30032312  0.80379614    -0.54600
O462        O  0.30583692  0.28993849  0.73563481    -0.74000
C463        C  0.32461964  0.27000246  0.73428465     0.98400
O464        O  0.31769831  0.18579660  0.67334949    -0.62800
O465        O  0.18542407  0.18368641  0.78701086    -0.57600
O466        O  0.27996086  0.17878615  0.73860327    -0.94300
O467        O  0.24924411  0.18800712  0.79293805    -0.92700
O468        O  0.18010281  0.15653505  0.68764716    -0.93100
O469        O  0.22395460  0.15325006  0.62872535    -0.91900
C470        C  0.26903061  0.17322656  0.77526618     1.17200
H471        H  0.16403721  0.21511962  0.71986115     0.33100
H472        H  0.25136935  0.20722305  0.60753716     0.44000
H473        H  0.27436194  0.24337766  0.77317864     0.37500
H474        H  0.21976402  0.31508222  0.66408322     0.34000
H475        H  0.18079200  0.17009034  0.57519525     0.25800
H476        H  0.26389689  0.31091373  0.55642492     0.31700
H477        H  0.29116540  0.34036799  0.70210731     0.37600
H478        H  0.16728924  0.14746031  0.66646624     0.32100
H479        H  0.19420873  0.16651648  0.77364550     0.31000
H480        H  0.22027039  0.21886726  0.85697146     0.32700
H481        H  0.27820880  0.28884166  0.81168544     0.31600
H482        H  0.24394139  0.15522675  0.63863176     0.35600
H483        H  0.32924816  0.18467158  0.69974209     0.28400
H484        H  0.12392536  0.30257237  0.67567364     0.32600
H485        H  0.25397975  0.34913729  0.76686355     0.35400
H486        H  0.18885231  0.18108077  0.81784469     0.28000
H487        H  0.30855622  0.16666725  0.67064014     0.40900
H488        H  0.22721713  0.23430055  0.53711446     0.31000
H489        H  0.18250354  0.20298757  0.56439374     0.38600
H490        H  0.24492026  0.28993438  0.81680524     0.30400
H491        H  0.26047742  0.32561181  0.60099891     0.30500
H492        H  0.14353573  0.32314458  0.70260163     0.30800
C493        C  0.15205659  0.34869905  0.90101211     0.02900
C494        C  0.16150490  0.34819317  0.94323299    -0.13300
C495        C  0.16248218  0.37352327  0.46810300     0.00400
C496        C  0.15495803  0.39968758  0.94793882    -0.11800
C497        C  0.14760743  0.40059808  0.90465863     0.02900
C498        C  0.14601765  0.37499162  0.88127846    -0.11200
H499        H  0.16666435  0.32735950  0.95624899     0.08500
H500        H  0.15374143  0.41963640  0.96547864     0.06000
H501        H  0.13796253  0.37531711  0.84894667     0.05800
C502        C  0.17652642  0.34509633  0.58094594     0.02900
C503        C  0.17032360  0.34595346  0.53745325    -0.13300
C504        C  0.16931212  0.37242435  0.51506179     0.00400
C505        C  0.17551182  0.39782307  0.53825192    -0.11800
C506        C  0.18014135  0.39707676  0.58237842     0.02900
C507        C  0.17995916  0.37070674  0.60368148    -0.11200
H508        H  0.16677842  0.32552413  0.52207630     0.08500
H509        H  0.17752953  0.41840919  0.52256605     0.06000
H510        H  0.18552048  0.36990817  0.63716448     0.05800
C511        C  0.14319412  0.46656528  0.83372910     0.02900
C512        C  0.11881592  0.98033468  0.85037671    -0.13300
C513        C  0.10360835  0.46728735  0.88387066     0.00400
C514        C  0.11377412  0.44158463  0.90178326    -0.11800
C515        C  0.13803237  0.42799247  0.88562571     0.02900
C516        C  0.15242967  0.44026043  0.85112151    -0.11200
H517        H  0.11093518  0.99998783  0.83592462     0.08500
H518        H  0.10197191  0.43137710  0.92739560     0.06000
H519        H  0.17113427  0.42957808  0.83824336     0.05800
C520        C  0.31201010  0.03198668  0.54852492     0.02900
C521        C  0.30168475  0.05800710  0.03158753    -0.13300
C522        C  0.31642727  0.07154794  0.99853393     0.00400
C523        C  0.34176051  0.05946272  0.98328493    -0.11800
C524        C  0.35245459  0.03379773  0.00034720     0.02900
C525        C  0.33722044  0.51959887  0.53253238    -0.11200
H526        H  0.28223322  0.06755345  0.54392218     0.08500
H527        H  0.35367825  0.07058861  0.95863934     0.06000
H528        H  0.34567057  0.50004722  0.54660004     0.05800
Zr529      Zr  0.28168095  0.02211794  0.69273571     2.17500
O530        O  0.32235330  0.05378045  0.67900022    -0.51600
O531        O  0.32261920  0.99653120  0.72326355    -0.74800
O532        O  0.28557981  0.06134918  0.74392957    -0.81600
O533        O  0.28027309  0.49733029  0.57503438    -0.83300
O534        O  0.25199723  0.05476395  0.79534488    -0.78900
O535        O  0.29890836  0.03054393  0.62053229    -0.90600
O536        O  0.30821518  0.45161415  0.74220416    -0.76500
O537        O  0.26389380  0.99647045  0.75278109    -0.86000
O538        O  0.27664458  0.47326227  0.67017277    -0.85700
O539        O  0.23673609  0.04495649  0.70965849    -0.72500
O540        O  0.24821034  0.02258802  0.63499491    -0.84600
Zr541      Zr  0.17951771  0.46937593  0.69138758     2.26400
Zr542      Zr  0.21891598  0.01837402  0.76960011     2.06300
Zr543      Zr  0.24238463  0.47356492  0.61373006     2.10000
Zr544      Zr  0.25791965  0.44792253  0.72970340     1.78800
O545        O  0.22919740  0.48393703  0.54037937    -0.93400
O546        O  0.26489508  0.43747176  0.80494918    -0.41200
O547        O  0.22408883  0.44675419  0.67283726    -0.77900
O548        O  0.21349556  0.46893850  0.74908780    -0.96500
O549        O  0.18466019  0.01845413  0.71282817    -0.89900
O550        O  0.19715440  0.49471249  0.63085217    -0.92700
C551        C  0.32719121  0.47117529  0.73812157     1.01100
C552        C  0.29656564  0.01869092  0.58376109     1.14000
C553        C  0.27329458  0.06819761  0.77896001     1.04800
O554        O  0.23361623  0.00595752  0.84158257    -0.94800
O555        O  0.17798413  0.99833175  0.80702195    -0.90600
O556        O  0.15707618  0.46629959  0.76170343    -0.83700
C557        C  0.15966597  0.47863246  0.79818230     1.11400
O558        O  0.22132187  0.08849757  0.62369941    -0.96800
Zr559      Zr  0.20320260  0.04334914  0.65266844     1.88900
O560        O  0.13866570  0.49347106  0.65778297    -0.73500
O561        O  0.18957371  0.05884702  0.79266555    -0.52700
O562        O  0.18618637  0.08600030  0.69020690    -0.97400
O563        O  0.19658821  0.04983713  0.57628105    -0.54600
O564        O  0.15244244  0.03959080  0.64520761    -0.74000
C565        C  0.13372261  0.01957964  0.64633261     0.98400
O566        O  0.14153631  0.43501356  0.70743353    -0.62800
O567        O  0.27333866  0.43357051  0.59358169    -0.57600
O568        O  0.17868158  0.42861367  0.64176235    -0.94300
O569        O  0.20941618  0.43784409  0.58746499    -0.92700
O570        O  0.27862343  0.40672444  0.69299840    -0.93100
O571        O  0.23488817  0.40358080  0.75255483    -0.91900
C572        C  0.18962334  0.42305950  0.60512231     1.17200
H573        H  0.29460949  0.46532612  0.66060474     0.33100
H574        H  0.20722013  0.45732616  0.77274844     0.44000
H575        H  0.18422917  0.49303306  0.60704721     0.37500
H576        H  0.23853315  0.06520420  0.71594060     0.34000
H577        H  0.27816977  0.42085297  0.80551559     0.25800
H578        H  0.19457134  0.06159982  0.82301757     0.31700
H579        H  0.16741588  0.09049333  0.67729712     0.37600
H580        H  0.29170739  0.39789200  0.71403776     0.32100
H581        H  0.26423016  0.41630975  0.60619428     0.31000
H582        H  0.23819270  0.46840898  0.52343067     0.32700
H583        H  0.17964000  0.03816156  0.56870447     0.31600
H584        H  0.21584648  0.40402911  0.73884736     0.35600
H585        H  0.12990757  0.43359148  0.68114785     0.28400
H586        H  0.33419123  0.05324384  0.70512450     0.32600
H587        H  0.20434212  0.09887222  0.61277825     0.35400
H588        H  0.27044194  0.43132360  0.56256492     0.28000
H589        H  0.15100700  0.41605322  0.71024230     0.40900
H590        H  0.23174386  0.98473263  0.84304615     0.31000
H591        H  0.27635184  0.45380596  0.81589444     0.38600
H592        H  0.21288529  0.03957416  0.56311702     0.30400
H593        H  0.19777684  0.07584970  0.77810248     0.30500
H594        H  0.31455894  0.07359935  0.67785462     0.30800
C595        C  0.28183342  0.09522317  0.79937656     0.02900
C596        C  0.28813998  0.09601988  0.84283722    -0.13300
C597        C  0.28929353  0.12246752  0.86526216     0.00400
C598        C  0.28316459  0.14791273  0.84210951    -0.11800
C599        C  0.27846846  0.14721275  0.79798721     0.02900
C600        C  0.27847230  0.12085317  0.77667666    -0.11200
H601        H  0.29163394  0.07556627  0.85817070     0.08500
H602        H  0.28124350  0.16849967  0.85781580     0.06000
H603        H  0.27283939  0.12009183  0.74321762     0.05800
C604        C  0.30648603  0.09863579  0.97933518     0.02900
C605        C  0.31246717  0.12492179  0.99912951    -0.13300
C606        C  0.31096900  0.15052876  0.97574357     0.00400
C607        C  0.30370750  0.14962870  0.93243068    -0.11800
C608        C  0.29615347  0.12349367  0.91222573     0.02900
C609        C  0.29710124  0.09814414  0.93707237    -0.11200
H610        H  0.32044816  0.12523531  0.53150265     0.08500
H611        H  0.30499782  0.16957524  0.91490088     0.06000
H612        H  0.29197481  0.07731426  0.92401391     0.05800
C613        C  0.06185348  0.21422984  0.58196768     0.02900
C614        C  0.08708006  0.22659246  0.59797530    -0.13300
C615        C  0.10240213  0.21228243  0.62997313     0.00400
C616        C  0.09176470  0.18654539  0.64686657    -0.11800
C617        C  0.06640148  0.17450295  0.63167902     0.02900
C618        C  0.05155661  0.18816333  0.59882152    -0.11200
H619        H  0.09549042  0.24619748  0.58401791     0.08500
H620        H  0.10372970  0.17534946  0.67139181     0.06000
H621        H  0.03206773  0.17866056  0.58654742     0.05800
C622        C  0.39311689  0.27969784  0.79659303     0.02900
C623        C  0.40238888  0.30601062  0.77926750    -0.13300
C624        C  0.38800485  0.31834665  0.74480648     0.00400
C625        C  0.36375244  0.30479272  0.72856688    -0.11800
C626        C  0.35356717  0.27906932  0.74637307     0.02900
C627        C  0.36873582  0.26597074  0.77986868    -0.11200
H628        H  0.42110520  0.31665350  0.79217701     0.08500
H629        H  0.35197446  0.31504115  0.70296518     0.06000
H630        H  0.36082273  0.24631004  0.79425868     0.05800
Zr631      Zr  0.03168110  0.22420912  0.93760560     2.17500
O632        O  0.07240418  0.19270107  0.95173955    -0.51600
O633        O  0.07262022  0.24976639  0.90706416    -0.74800
O634        O  0.03558591  0.18501044  0.88628872    -0.81600
O635        O  0.03015436  0.24893042  0.55540842    -0.83300
O636        O  0.00189901  0.19153189  0.83498412    -0.78900
O637        O  0.04879210  0.21572638  0.50990653    -0.90600
O638        O  0.05820793  0.29472383  0.88834793    -0.76500
O639        O  0.01390847  0.24993338  0.87760337    -0.86000
O640        O  0.02658791  0.27304820  0.96026779    -0.85700
O641        O  0.48675538  0.20138897  0.92052827    -0.72500
O642        O  0.49817563  0.22367928  0.49527617    -0.84600
Zr643      Zr  0.42942402  0.27686363  0.93897233     2.26400
Zr644      Zr  0.46893424  0.22805755  0.86065772     2.06300
Zr645      Zr  0.49228717  0.27267301  0.51664797     2.10000
Zr646      Zr  0.00788562  0.29845265  0.90078336     1.78800
O647        O  0.47947048  0.26209999  0.59006754    -0.93400
O648        O  0.01461889  0.30877985  0.82544716    -0.41200
O649        O  0.47398754  0.29950870  0.95758408    -0.77900
O650        O  0.46344255  0.27746057  0.88131093    -0.96500
O651        O  0.43467006  0.22784280  0.91740654    -0.89900
O652        O  0.44708410  0.25148449  0.99945941    -0.92700
C653        C  0.07718892  0.27515238  0.89232530     1.01100
C654        C  0.04642812  0.22755364  0.54670283     1.14000
C655        C  0.02323612  0.17812293  0.85130740     1.04800
O656        O  0.48383200  0.24092433  0.78893138    -0.94800
O657        O  0.42787215  0.24789561  0.82332043    -0.90600
O658        O  0.40698835  0.27994019  0.86863546    -0.83700
C659        C  0.40956241  0.26760020  0.83215713     1.11400
O660        O  0.47136712  0.15751917  0.50566253    -0.96800
Zr661      Zr  0.45322328  0.20288070  0.97748586     1.88900
O662        O  0.38866312  0.25256977  0.97256901    -0.73500
O663        O  0.43954483  0.18777501  0.83702868    -0.52700
O664        O  0.43596398  0.16049483  0.93954958    -0.97400
O665        O  0.44673285  0.19628499  0.55388145    -0.54600
O666        O  0.40251927  0.20648000  0.98520064    -0.74000
C667        C  0.38377874  0.22646107  0.98409375     0.98400
O668        O  0.39141414  0.31115900  0.92274620    -0.62800
O669        O  0.02310166  0.31270915  0.53705026    -0.57600
O670        O  0.42833919  0.31749888  0.98879620    -0.94300
O671        O  0.45930323  0.30841557  0.54286806    -0.92700
O672        O  0.02890566  0.33962600  0.93717387    -0.93100
O673        O  0.98489776  0.34304070  0.87888802    -0.91900
C674        C  0.43939305  0.32311617  0.52533962     1.17200
H675        H  0.04453897  0.28098802  0.96988039     0.33100
H676        H  0.45713372  0.28908619  0.85768061     0.44000
H677        H  0.43415796  0.25311545  0.52327340     0.37500
H678        H  0.48853958  0.18114608  0.91422064     0.34000
H679        H  0.02810610  0.32521980  0.82473265     0.25800
H680        H  0.44463329  0.18512545  0.80668922     0.31700
H681        H  0.41771011  0.15537102  0.95354736     0.37600
H682        H  0.04198521  0.34835595  0.91603429     0.32100
H683        H  0.01429361  0.32987940  0.52371666     0.31000
H684        H  0.48864790  0.27752110  0.60701435     0.32700
H685        H  0.42979454  0.20794677  0.56155665     0.31600
H686        H  0.46587009  0.34249422  0.89263649     0.35600
H687        H  0.37967618  0.31249153  0.94893567     0.28400
H688        H  0.08445859  0.19348834  0.92585195     0.32600
H689        H  0.45446587  0.14731351  0.51717820     0.35400
H690        H  0.01968907  0.31529280  0.56789325     0.28000
H691        H  0.40084484  0.33015031  0.92011150     0.40900
H692        H  0.98009254  0.26186793  0.78672871     0.31000
H693        H  0.02581011  0.29228936  0.81439969     0.38600
H694        H  0.46304651  0.20653645  0.56701746     0.30400
H695        H  0.44763651  0.17068814  0.85151227     0.30500
H696        H  0.06471167  0.17283276  0.95241390     0.30800
C697        C  0.03174506  0.15107440  0.83089553     0.02900
C698        C  0.02849057  0.12547210  0.85369001    -0.13300
C699        C  0.02850960  0.09908550  0.83246005     0.00400
C700        C  0.03323008  0.09830862  0.78834925    -0.11800
C701        C  0.03924261  0.12372820  0.76507363     0.02900
C702        C  0.03794776  0.15021978  0.78739579    -0.11200
H703        H  0.02289896  0.12626929  0.88716292     0.08500
H704        H  0.03138564  0.07767696  0.77275627     0.06000
H705        H  0.04127480  0.17066843  0.77197951     0.05800
C706        C  0.05647176  0.14741657  0.65092044     0.02900
C707        C  0.04715216  0.14795641  0.69321171    -0.13300
C708        C  0.04611385  0.12262932  0.71809867     0.00400
C709        C  0.05358580  0.09645526  0.69791515    -0.11800
C710        C  0.06088806  0.09551328  0.65461343     0.02900
C711        C  0.06242008  0.12110355  0.63117627    -0.11200
H712        H  0.04213915  0.16881809  0.70624007     0.08500
H713        H  0.05479299  0.07650521  0.71544333     0.06000
H714        H  0.07039525  0.12075344  0.59880052     0.05800
C715        C  0.06535593  0.02946444  0.58382137     0.02900
C716        C  0.05620239  0.05586872  0.60098666    -0.13300
C717        C  0.07047019  0.06809032  0.63564435     0.00400
C718        C  0.09458238  0.05438694  0.65210002    -0.11800
C719        C  0.10473625  0.02863111  0.63433351     0.02900
C720        C  0.08957492  0.51558019  0.60079065    -0.11200
H721        H  0.03762170  0.06663551  0.58786651     0.08500
H722        H  0.10632025  0.06457393  0.67779333     0.06000
H723        H  0.09741523  0.49586118  0.58648696     0.05800
C724        C  0.39652124  0.46430135  0.79862855     0.02900
C725        C  0.37139067  0.97676206  0.78246312    -0.13300
C726        C  0.35621993  0.46261500  0.75015507     0.00400
C727        C  0.36693494  0.43695012  0.73310976    -0.11800
C728        C  0.39213888  0.42474365  0.74862058     0.02900
C729        C  0.40678134  0.43820939  0.78183742    -0.11200
H730        H  0.36294764  0.99633042  0.79648793     0.08500
H731        H  0.35509671  0.42588649  0.70831988     0.06000
H732        H  0.42614210  0.42858115  0.79434905     0.05800
Zr733      Zr  0.42684721  0.47423717  0.94280617     2.17500
O734        O  0.38626582  0.44256767  0.92864517    -0.51600
O735        O  0.38593575  0.49993837  0.97311108    -0.74800
O736        O  0.42282797  0.43502882  0.99405580    -0.81600
O737        O  0.42827329  0.99897951  0.82511526    -0.83300
O738        O  0.45644993  0.44153325  0.54544024    -0.78900
O739        O  0.40964340  0.46576982  0.87062075    -0.90600
O740        O  0.40052698  0.04465310  0.99280443    -0.76500
O741        O  0.44469188  0.49983218  0.00286151    -0.86000
O742        O  0.43197675  0.02311327  0.92035522    -0.85700
O743        O  0.47172316  0.45130140  0.95970500    -0.72500
O744        O  0.46024931  0.47371589  0.88501758    -0.84600
Zr745      Zr  0.02911509  0.02671398  0.94137321     2.26400
Zr746      Zr  0.48961829  0.47783467  0.51963490     2.06300
Zr747      Zr  0.46617802  0.02273993  0.86384572     2.10000
Zr748      Zr  0.45078955  0.04838908  0.97989699     1.78800
O749        O  0.47948933  0.01270205  0.79043575    -0.93400
O750        O  0.44401292  0.05880378  0.55520582    -0.41200
O751        O  0.48458822  0.04947092  0.92295033    -0.77900
O752        O  0.49518393  0.02726306  0.49915572    -0.96500
O753        O  0.02382384  0.47765223  0.96277671    -0.89900
O754        O  0.01135486  0.00145329  0.88087639    -0.92700
C755        C  0.38147015  0.02520529  0.98835707     1.01100
C756        C  0.41197420  0.47761779  0.83384858     1.14000
C757        C  0.43511805  0.42814150  0.52907205     1.04800
O758        O  0.47474533  0.49058829  0.59142633    -0.94800
O759        O  0.03072974  0.49757165  0.55696296    -0.90600
O760        O  0.05141418  0.02986242  0.51180914    -0.83700
C761        C  0.04893281  0.01739853  0.54821642     1.11400
O762        O  0.48705430  0.40762153  0.87385349    -0.96800
Zr763      Zr  0.00518453  0.45281723  0.90261700     1.88900
O764        O  0.06978960  0.00245910  0.90752028    -0.73500
O765        O  0.01883459  0.43724944  0.54260686    -0.52700
O766        O  0.02216106  0.41006468  0.93996880    -0.97400
O767        O  0.01141939  0.44651186  0.82611750    -0.54600
O768        O  0.05589033  0.45641355  0.89467412    -0.74000
C769        C  0.07464777  0.47637665  0.89586757     0.98400
O770        O  0.06766934  0.06053448  0.95686072    -0.62800
O771        O  0.43524528  0.06285622  0.84419668    -0.57600
O772        O  0.02992984  0.06756781  0.89188821    -0.94300
O773        O  0.99921494  0.05836414  0.83755937    -0.92700
O774        O  0.43003304  0.08967507  0.94346411    -0.93100
O775        O  0.47394195  0.09272823  0.50255378    -0.91900
C776        C  0.01902180  0.07311806  0.85522030     1.17200
H777        H  0.41402098  0.03109759  0.91083595     0.33100
H778        H  0.50146891  0.03886158  0.52282603     0.44000
H779        H  0.02425916  0.00313043  0.85704907     0.37500
H780        H  0.46987306  0.43106141  0.96600366     0.34000
H781        H  0.43091375  0.07556194  0.55586577     0.25800
H782        H  0.01365022  0.43430862  0.57285046     0.31700
H783        H  0.04133148  0.40609700  0.92802364     0.37600
H784        H  0.41678064  0.09830066  0.96445785     0.32100
H785        H  0.44475469  0.08013618  0.85607764     0.31000
H786        H  0.47065633  0.02839404  0.77362655     0.32700
H787        H  0.02812453  0.45846897  0.81830455     0.31600
H788        H  0.49232666  0.09299116  0.48697318     0.35600
H789        H  0.07913935  0.06177675  0.93040093     0.28400
H790        H  0.37425541  0.44320475  0.95458763     0.32600
H791        H  0.00398950  0.39740449  0.86246561     0.35400
H792        H  0.43757786  0.06478728  0.81302947     0.28000
H793        H  0.05848450  0.07962993  0.45977040     0.40900
H794        H  0.47765681  0.51168253  0.59323950     0.31000
H795        H  0.43240185  0.04257748  0.56614414     0.38600
H796        H  0.99487098  0.45650599  0.81319891     0.30400
H797        H  0.01073546  0.42033271  0.52770211     0.30500
H798        H  0.39406236  0.42274326  0.92777423     0.30800
C799        C  0.39761796  0.34574081  0.72582965     0.02900
C800        C  0.40497056  0.34664566  0.68256066    -0.13300
C801        C  0.41253343  0.37279093  0.66239484     0.00400
C802        C  0.41157576  0.39812982  0.68725739    -0.14600
C803        C  0.40207827  0.39763775  0.72946249     0.02900
C804        C  0.39602321  0.37134885  0.74920289    -0.11200
H805        H  0.40371241  0.32669902  0.66502701     0.08500
H806        H  0.41675922  0.41895648  0.67423570     0.06000
H807        H  0.38794167  0.37102894  0.78152078     0.05800
C808        C  0.42655271  0.40111374  0.54949602     0.02900
C809        C  0.42041782  0.40030214  0.59301177    -0.13300
C810        C  0.41933258  0.37384656  0.61542448     0.00400
C811        C  0.42541071  0.34841200  0.59223373    -0.11800
C812        C  0.42994414  0.34911539  0.54808506     0.02900
C813        C  0.42981046  0.37547817  0.02675975    -0.11200
H814        H  0.41700081  0.42075182  0.60839426     0.08500
H815        H  0.42742108  0.32782876  0.60792735     0.06000
H816        H  0.43531607  0.37624130  0.99325441     0.05800
C817        C  0.14656808  0.78199903  0.33189902     0.02900
C818        C  0.15684665  0.80807374  0.34872798    -0.13300
C819        C  0.14213697  0.82159432  0.38183604     0.00400
C820        C  0.11689692  0.80942394  0.39727002    -0.11800
C821        C  0.10621696  0.78372707  0.38028978     0.02900
C822        C  0.12142791  0.76954633  0.34805204    -0.11200
H823        H  0.17624580  0.81766703  0.33628859     0.08500
H824        H  0.10501917  0.82052647  0.42198127     0.06000
H825        H  0.11300382  0.74996045  0.33405709     0.05800
C826        C  0.31530581  0.71663443  0.04643551     0.02900
C827        C  0.33960582  0.73045775  0.02960221    -0.13300
C828        C  0.35482891  0.71735999  0.49615714     0.00400
C829        C  0.34473365  0.69156505  0.47845256    -0.11800
C830        C  0.32055360  0.67792416  0.49477071     0.02900
C831        C  0.30617014  0.69022441  0.52926369    -0.11200
H832        H  0.34743549  0.75018182  0.04390274     0.08500
H833        H  0.35652997  0.68133145  0.45285566     0.06000
H834        H  0.28752524  0.67950521  0.04226519     0.05800
Zr835      Zr  0.17672673  0.77191532  0.18755159     2.17500
O836        O  0.13588459  0.80326460  0.20166389    -0.51600
O837        O  0.13590713  0.74621670  0.15696988    -0.74800
O838        O  0.17270606  0.81117000  0.13637078    -0.81600
O839        O  0.17854253  0.74753030  0.30550283    -0.83300
O840        O  0.20627631  0.80457657  0.08491761    -0.78900
O841        O  0.15943281  0.78031142  0.25977021    -0.90600
O842        O  0.15045341  0.70136241  0.13792318    -0.76500
O843        O  0.19454042  0.74618549  0.12757229    -0.86000
O844        O  0.18196888  0.72310470  0.21024529    -0.85700
O845        O  0.22159077  0.79484618  0.17042410    -0.72500
O846        O  0.21023592  0.77265226  0.24520537    -0.84600
Zr847      Zr  0.27909912  0.71955099  0.18890452     2.26400
Zr848      Zr  0.23942440  0.76819740  0.11055272     2.06300
Zr849      Zr  0.21627867  0.72369098  0.26662123     2.10000
Zr850      Zr  0.20074073  0.69769585  0.15078155     1.78800
O851        O  0.22939622  0.73427044  0.33992790    -0.93400
O852        O  0.19399699  0.68676756  0.07562098    -0.41200
O853        O  0.23461956  0.69681683  0.20760434    -0.77900
O854        O  0.24508875  0.71882644  0.13120493    -0.96500
O855        O  0.27370558  0.76854857  0.16728950    -0.89900
O856        O  0.26143348  0.74495471  0.24936300    -0.92700
C857        C  0.13141981  0.72087525  0.14201878     1.01100
C858        C  0.16201353  0.76867992  0.29666551     1.14000
C859        C  0.18498939  0.81802298  0.10132601     1.04800
O860        O  0.22421006  0.75537815  0.03896002    -0.94800
O861        O  0.28054907  0.74846534  0.07318200    -0.90600
O862        O  0.30135601  0.71632885  0.11844277    -0.83700
C863        C  0.29882797  0.72871745  0.08198895     1.11400
O864        O  0.23709994  0.83905555  0.25504264    -0.96800
Zr865      Zr  0.25515155  0.79352701  0.22735437     1.88900
O866        O  0.31979982  0.74395372  0.22243312    -0.73500
O867        O  0.26877417  0.80848430  0.08687933    -0.52700
O868        O  0.27236147  0.83588916  0.18929585    -0.97400
O869        O  0.26119445  0.80032295  0.30379616    -0.54600
O870        O  0.30583688  0.78993864  0.23563456    -0.74000
C871        C  0.32461957  0.77000258  0.23428456     0.98400
O872        O  0.31769822  0.68579661  0.17334923    -0.62800
O873        O  0.18542379  0.68368651  0.28701090    -0.57600
O874        O  0.27996088  0.67878622  0.23860341    -0.94300
O875        O  0.24924399  0.68800701  0.29293809    -0.92700
O876        O  0.18010259  0.65653510  0.18764702    -0.93100
O877        O  0.22395464  0.65325008  0.12872509    -0.91900
C878        C  0.26903056  0.67322654  0.27526623     1.17200
H879        H  0.16403695  0.71511942  0.21986122     0.33100
H880        H  0.25136946  0.70722273  0.10753677     0.44000
H881        H  0.27436191  0.74337751  0.27317873     0.37500
H882        H  0.21976404  0.81508158  0.16408329     0.34000
H883        H  0.18079230  0.67009016  0.07519484     0.25800
H884        H  0.26389646  0.81091374  0.05642422     0.31700
H885        H  0.29116529  0.84036804  0.20210753     0.37600
H886        H  0.16728921  0.64745990  0.16646525     0.32100
H887        H  0.19420838  0.66651638  0.27364542     0.31000
H888        H  0.22027058  0.71886701  0.35697131     0.32700
H889        H  0.27820834  0.78884126  0.31168553     0.31600
H890        H  0.24394086  0.65522639  0.13863251     0.35600
H891        H  0.32924819  0.68467163  0.19974189     0.28400
H892        H  0.12392513  0.80257211  0.17567338     0.32600
H893        H  0.25397983  0.84913722  0.26686404     0.35400
H894        H  0.18885207  0.68108084  0.31784462     0.28000
H895        H  0.30855624  0.66666753  0.17063998     0.40900
H896        H  0.22721755  0.73430015  0.03711456     0.31000
H897        H  0.18250348  0.70298763  0.06439357     0.38600
H898        H  0.24491984  0.78993456  0.31680533     0.30400
H899        H  0.26047765  0.82561162  0.10099856     0.30500
H900        H  0.14353543  0.82314444  0.20260127     0.30800
C901        C  0.15205653  0.84869901  0.40101212     0.02900
C902        C  0.16150487  0.84819313  0.44323298    -0.13300
C903        C  0.16248210  0.87352324  0.96810310     0.00400
C904        C  0.15495817  0.89968754  0.44793875    -0.11800
C905        C  0.14760747  0.90059804  0.40465859     0.02900
C906        C  0.14601759  0.87499157  0.38127848    -0.11200
H907        H  0.16666425  0.82735947  0.45624899     0.08500
H908        H  0.15374169  0.91963635  0.46547854     0.06000
H909        H  0.13796246  0.87531705  0.34894672     0.05800
C910        C  0.17652639  0.84509632  0.08094598     0.02900
C911        C  0.17032350  0.84595346  0.03745333    -0.13300
C912        C  0.16931198  0.87242436  0.01506189     0.00400
C913        C  0.17551174  0.89782309  0.03825197    -0.11800
C914        C  0.18014142  0.89707676  0.08237841     0.02900
C915        C  0.17995925  0.87070672  0.10368147    -0.11200
H916        H  0.16677836  0.82552412  0.02207637     0.08500
H917        H  0.17752949  0.91840920  0.02256607     0.06000
H918        H  0.18552071  0.86990813  0.13716441     0.05800
C919        C  0.14319417  0.96656526  0.33372898     0.02900
C920        C  0.11881591  0.48033465  0.35037653    -0.13300
C921        C  0.10360836  0.96728727  0.38387036     0.00400
C922        C  0.11377411  0.94158455  0.40178299    -0.11800
C923        C  0.13803244  0.92799246  0.38562563     0.02900
C924        C  0.15242978  0.94026046  0.35112148    -0.11200
H925        H  0.11093520  0.49998781  0.33592446     0.08500
H926        H  0.10197187  0.93137703  0.42739527     0.06000
H927        H  0.17113441  0.92957817  0.33824337     0.05800
C928        C  0.31200990  0.53198664  0.04852461     0.02900
C929        C  0.30168481  0.55800703  0.53158761    -0.13300
C930        C  0.31642739  0.57154784  0.49853397     0.00400
C931        C  0.34176065  0.55946258  0.48328507    -0.11800
C932        C  0.35245472  0.53379762  0.50034748     0.02900
C933        C  0.33722040  0.01959896  0.03253210    -0.11200
H934        H  0.28223310  0.56755354  0.04392212     0.08500
H935        H  0.35367846  0.57058844  0.45863945     0.06000
H936        H  0.34567058  0.00004731  0.04659968     0.05800
Zr937      Zr  0.28168098  0.52211794  0.19273559     2.17500
O938        O  0.32235335  0.55378041  0.17900001    -0.51600
O939        O  0.32261924  0.49653134  0.22326359    -0.74800
O940        O  0.28557974  0.56134918  0.24392953    -0.81600
O941        O  0.28027304  0.99733034  0.07503407    -0.83300
O942        O  0.25199724  0.55476387  0.29534495    -0.78900
O943        O  0.29890830  0.53054399  0.12053205    -0.90600
O944        O  0.30821530  0.95161419  0.24220394    -0.76500
O945        O  0.26389383  0.49647046  0.25278101    -0.86000
O946        O  0.27664459  0.97326236  0.17017269    -0.85700
O947        O  0.23673610  0.54495648  0.20965848    -0.72500
O948        O  0.24821030  0.52258804  0.13499488    -0.84600
Zr949      Zr  0.17951786  0.96937598  0.19138743     2.26400
Zr950      Zr  0.21891601  0.51837398  0.26960012     2.06300
Zr951      Zr  0.24238471  0.97356500  0.11372991     2.10000
Zr952      Zr  0.25791976  0.94792256  0.22970332     1.78800
O953        O  0.22919730  0.98393694  0.04037926    -0.93400
O954        O  0.26489508  0.93747180  0.30494918    -0.41200
O955        O  0.22408899  0.94675426  0.17283710    -0.77900
O956        O  0.21349568  0.96893849  0.24908762    -0.96500
O957        O  0.18466023  0.51845414  0.21282819    -0.89900
O958        O  0.19715446  0.99471259  0.13085199    -0.92700
C959        C  0.32719128  0.97117537  0.23812146     1.01100
C960        C  0.29656551  0.51869095  0.08376088     1.14000
C961        C  0.27329455  0.56819756  0.27896003     1.04800
O962        O  0.23361638  0.50595762  0.34158256    -0.94800
O963        O  0.17798417  0.49833175  0.30702200    -0.90600
O964        O  0.15707633  0.96629951  0.26170331    -0.83700
C965        C  0.15966602  0.97863242  0.29818217     1.11400
O966        O  0.22132155  0.58849771  0.12369938    -0.96800
Zr967      Zr  0.20320257  0.54334916  0.15266846     1.88900
O968        O  0.13866580  0.99347107  0.15778278    -0.73500
O969        O  0.18957378  0.55884699  0.29266559    -0.52700
O970        O  0.18618624  0.58600025  0.19020697    -0.97400
O971        O  0.19658828  0.54983695  0.07628102    -0.54600
O972        O  0.15244243  0.53959067  0.14520734    -0.74000
C973        C  0.13372258  0.51957953  0.14633261     0.98400
O974        O  0.14153659  0.93501355  0.20743353    -0.62800
O975        O  0.27333894  0.93357073  0.09358139    -0.57600
O976        O  0.17868157  0.92861379  0.14176214    -0.94300
O977        O  0.20941640  0.93784399  0.08746499    -0.92700
O978        O  0.27862334  0.90672434  0.19299842    -0.93100
O979        O  0.23488834  0.90358085  0.25255488    -0.91900
C980        C  0.18962345  0.92305950  0.10512225     1.17200
H981        H  0.29461016  0.96532597  0.16060436     0.33100
H982        H  0.20721991  0.95732552  0.27274948     0.44000
H983        H  0.18422886  0.99303313  0.10704647     0.37500
H984        H  0.23853309  0.56520357  0.21594046     0.34000
H985        H  0.27816967  0.92085324  0.30551567     0.25800
H986        H  0.19457137  0.56159963  0.32301786     0.31700
H987        H  0.16741571  0.59049285  0.17729791     0.37600
H988        H  0.29170732  0.89789172  0.21403803     0.32100
H989        H  0.26423049  0.91630965  0.10619428     0.31000
H990        H  0.23819276  0.96840889  0.02343057     0.32700
H991        H  0.17963999  0.53816216  0.06870478     0.31600
H992        H  0.21584702  0.90402862  0.23884604     0.35600
H993        H  0.12990787  0.93359148  0.18114813     0.28400
H994        H  0.33419113  0.55324377  0.20512404     0.32600
H995        H  0.20434206  0.59887203  0.11277828     0.35400
H996        H  0.27044223  0.93132369  0.06256490     0.28000
H997        H  0.15100733  0.91605332  0.21024233     0.40900
H998        H  0.23174388  0.48473259  0.34304626     0.31000
H999        H  0.27635177  0.95380613  0.31589454     0.38600
H1000       H  0.21288519  0.53957327  0.06311702     0.30400
H1001       H  0.19777699  0.57584955  0.27810285     0.30500
H1002       H  0.31455897  0.57359920  0.17785436     0.30800
C1003       C  0.28183338  0.59522313  0.29937659     0.02900
C1004       C  0.28814004  0.59601986  0.34283720    -0.13300
C1005       C  0.28929363  0.62246751  0.36526214     0.00400
C1006       C  0.28316473  0.64791273  0.34210945    -0.11800
C1007       C  0.27846844  0.64721271  0.29798720     0.02900
C1008       C  0.27847219  0.62085311  0.27667669    -0.11200
H1009       H  0.29163405  0.57556626  0.35817067     0.08500
H1010       H  0.28124382  0.66849970  0.35781567     0.06000
H1011       H  0.27283920  0.62009173  0.24321769     0.05800
C1012       C  0.30648619  0.59863572  0.47933517     0.02900
C1013       C  0.31246730  0.62492173  0.49912950    -0.13300
C1014       C  0.31096906  0.65052870  0.47574358     0.00400
C1015       C  0.30370760  0.64962865  0.43243068    -0.11800
C1016       C  0.29615359  0.62349365  0.41222572     0.02900
C1017       C  0.29710140  0.59814410  0.43707235    -0.11200
H1018       H  0.32044816  0.62523540  0.03150262     0.08500
H1019       H  0.30499794  0.66957520  0.41490090     0.06000
H1020       H  0.29197496  0.57731425  0.42401387     0.05800
C1021       C  0.06185338  0.71422993  0.08196779     0.02900
C1022       C  0.08707997  0.72659252  0.09797541    -0.13300
C1023       C  0.10240210  0.71228236  0.12997305     0.00400
C1024       C  0.09176474  0.68654526  0.14686640    -0.11800
C1025       C  0.06640142  0.67450291  0.13167899     0.02900
C1026       C  0.05155648  0.68816342  0.09882165    -0.11200
H1027       H  0.09549029  0.74619762  0.08401814     0.08500
H1028       H  0.10372981  0.67534923  0.17139149     0.06000
H1029       H  0.03206754  0.67866072  0.08654760     0.05800
C1030       C  0.39311684  0.77969792  0.29659286     0.02900
C1031       C  0.40238884  0.80601071  0.27926736    -0.13300
C1032       C  0.38800476  0.81834678  0.24480641     0.00400
C1033       C  0.36375240  0.80479278  0.22856674    -0.11800
C1034       C  0.35356710  0.77906940  0.24637296     0.02900
C1035       C  0.36873575  0.76597082  0.27986856    -0.11200
H1036       H  0.42110517  0.81665358  0.29217687     0.08500
H1037       H  0.35197443  0.81504117  0.20296501     0.06000
H1038       H  0.36082266  0.74631014  0.29425862     0.05800
Zr1039     Zr  0.03168111  0.72420899  0.43760562     2.17500
O1040       O  0.07240421  0.69270092  0.45173933    -0.51600
O1041       O  0.07262025  0.74976630  0.40706415    -0.74800
O1042       O  0.03558599  0.68501036  0.38628870    -0.81600
O1043       O  0.03015447  0.74893070  0.05540842    -0.83300
O1044       O  0.00189901  0.69153177  0.33498421    -0.78900
O1045       O  0.04879189  0.71572639  0.00990669    -0.90600
O1046       O  0.05820786  0.79472370  0.38834795    -0.76500
O1047       O  0.01390859  0.74993332  0.37760340    -0.86000
O1048       O  0.02658788  0.77304811  0.46026786    -0.85700
O1049       O  0.48675529  0.70138896  0.42052814    -0.72500
O1050       O  0.49817562  0.72367931  0.99527640    -0.84600
Zr1051     Zr  0.42942395  0.77686366  0.43897210     2.26400
Zr1052     Zr  0.46893414  0.72805752  0.36065764     2.06300
Zr1053     Zr  0.49228717  0.77267307  0.01664805     2.10000
Zr1054     Zr  0.00788560  0.79845259  0.40078338     1.78800
O1055       O  0.47947061  0.76210004  0.09006762    -0.93400
O1056       O  0.01461883  0.80877986  0.32544719    -0.41200
O1057       O  0.47398747  0.79950873  0.45758392    -0.77900
O1058       O  0.46344248  0.77746057  0.38131072    -0.96500
O1059       O  0.43466984  0.72784279  0.41740628    -0.89900
O1060       O  0.44708396  0.75148446  0.49945911    -0.92700
C1061       C  0.07718889  0.77515229  0.39232527     1.01100
C1062       C  0.04642806  0.72755376  0.04670293     1.14000
C1063       C  0.02323616  0.67812287  0.35130741     1.04800
O1064       O  0.48383196  0.74092418  0.28893134    -0.94800
O1065       O  0.42787210  0.74789571  0.32332029    -0.90600
O1066       O  0.40698818  0.77994022  0.36863531    -0.83700
C1067       C  0.40956231  0.76760027  0.33215698     1.11400
O1068       O  0.47136720  0.65751929  0.00566317    -0.96800
Zr1069     Zr  0.45322312  0.70288069  0.47748558     1.88900
O1070       O  0.38866294  0.75256993  0.47256866    -0.73500
O1071       O  0.43954482  0.68777498  0.33702830    -0.52700
O1072       O  0.43596374  0.66049489  0.43954925    -0.97400
O1073       O  0.44673276  0.69628524  0.05388175    -0.54600
O1074       O  0.40251913  0.70648018  0.48520041    -0.74000
C1075       C  0.38377859  0.72646122  0.48409347     0.98400
O1076       O  0.39141440  0.81115933  0.42274591    -0.62800
O1077       O  0.02310164  0.81270931  0.03705018    -0.57600
O1078       O  0.42833907  0.81749881  0.48879623    -0.94300
O1079       O  0.45930335  0.80841566  0.04286813    -0.92700
O1080       O  0.02890579  0.83962583  0.43717394    -0.93100
O1081       O  0.98489792  0.84304088  0.37888844    -0.91900
C1082       C  0.43939320  0.82311625  0.02533962     1.17200
H1083       H  0.04453845  0.78098772  0.46988021     0.33100
H1084       H  0.45713353  0.78908646  0.35767989     0.44000
H1085       H  0.43415840  0.75311549  0.02327251     0.37500
H1086       H  0.48853952  0.68114521  0.41422019     0.34000
H1087       H  0.02810642  0.82521967  0.32473272     0.25800
H1088       H  0.44463306  0.68512560  0.30668941     0.31700
H1089       H  0.41770942  0.65537142  0.45354658     0.37600
H1090       H  0.04198568  0.84835565  0.41603437     0.32100
H1091       H  0.01429377  0.82987931  0.02371663     0.31000
H1092       H  0.48864771  0.77752147  0.10701434     0.32700
H1093       H  0.42979445  0.70794693  0.06155683     0.31600
H1094       H  0.46587005  0.84249419  0.39263610     0.35600
H1095       H  0.37967649  0.81249186  0.44893507     0.28400
H1096       H  0.08445850  0.69348813  0.42585170     0.32600
H1097       H  0.45446606  0.64731358  0.01717851     0.35400
H1098       H  0.01968886  0.81529306  0.06789368     0.28000
H1099       H  0.40084534  0.83015063  0.42011133     0.40900
H1100       H  0.98009208  0.76186765  0.28672811     0.31000
H1101       H  0.02580962  0.79228936  0.31439962     0.38600
H1102       H  0.46304646  0.70653695  0.06701783     0.30400
H1103       H  0.44763678  0.67068772  0.35151202     0.30500
H1104       H  0.06471162  0.67283251  0.45241378     0.30800
C1105       C  0.03174511  0.65107436  0.33089548     0.02900
C1106       C  0.02849059  0.62547205  0.35368991    -0.13300
C1107       C  0.02850954  0.59908547  0.33245990     0.00400
C1108       C  0.03322998  0.59830862  0.28834910    -0.11800
C1109       C  0.03924254  0.62372819  0.26507353     0.02900
C1110       C  0.03794773  0.65021977  0.28739573    -0.11200
H1111       H  0.02289899  0.62626920  0.38716281     0.08500
H1112       H  0.03138551  0.57767698  0.27275604     0.06000
H1113       H  0.04127474  0.67066841  0.27197943     0.05800
C1114       C  0.05647170  0.64741653  0.15092038     0.02900
C1115       C  0.04715204  0.64795638  0.19321161    -0.13300
C1116       C  0.04611380  0.62262929  0.21809862     0.00400
C1117       C  0.05358594  0.59645521  0.19791519    -0.11800
C1118       C  0.06088818  0.59551324  0.15461346     0.02900
C1119       C  0.06242008  0.62110348  0.13117623    -0.11200
H1120       H  0.04213893  0.66881806  0.20623997     0.08500
H1121       H  0.05479327  0.57650515  0.21544342     0.06000
H1122       H  0.07039520  0.62075333  0.09880043     0.05800
C1123       C  0.06535589  0.52946446  0.08382135     0.02900
C1124       C  0.05620241  0.55586872  0.10098671    -0.13300
C1125       C  0.07047028  0.56809030  0.13564432     0.00400
C1126       C  0.09458243  0.55438687  0.15209994    -0.11800
C1127       C  0.10473622  0.52863101  0.13433347     0.02900
C1128       C  0.08957503  0.01558023  0.10079049    -0.11200
H1129       H  0.03762171  0.56663553  0.08786667     0.08500
H1130       H  0.10632033  0.56457383  0.17779322     0.06000
H1131       H  0.09741539  0.99586126  0.08648674     0.05800
C1132       C  0.39652128  0.96430146  0.29862856     0.02900
C1133       C  0.37139069  0.47676209  0.28246319    -0.13300
C1134       C  0.35622000  0.96261511  0.25015498     0.00400
C1135       C  0.36693511  0.93695035  0.23310949    -0.11800
C1136       C  0.39213903  0.92474387  0.24862036     0.02900
C1137       C  0.40678146  0.93820956  0.28183729    -0.11200
H1138       H  0.36294764  0.49633041  0.29648814     0.08500
H1139       H  0.35509693  0.92588675  0.20831950     0.06000
H1140       H  0.42614222  0.92858130  0.29434896     0.05800
Zr1141     Zr  0.42684731  0.97423722  0.44280618     2.17500
O1142       O  0.38626575  0.94256790  0.42864547    -0.51600
O1143       O  0.38593583  0.99993840  0.47311110    -0.74800
O1144       O  0.42282807  0.93502886  0.49405582    -0.81600
O1145       O  0.42827331  0.49897951  0.32511528    -0.83300
O1146       O  0.45644993  0.94153314  0.04544006    -0.78900
O1147       O  0.40964338  0.96576992  0.37062079    -0.90600
O1148       O  0.40052712  0.54465300  0.49280480    -0.76500
O1149       O  0.44469205  0.99983217  0.50286151    -0.86000
O1150       O  0.43197682  0.52311325  0.42035534    -0.85700
O1151       O  0.47172321  0.95130133  0.45970494    -0.72500
O1152       O  0.46024943  0.97371591  0.38501762    -0.84600
Zr1153     Zr  0.02911514  0.52671395  0.44137303     2.26400
Zr1154     Zr  0.48961820  0.97783473  0.01963494     2.06300
Zr1155     Zr  0.46617799  0.52273995  0.36384576     2.10000
Zr1156     Zr  0.45078964  0.54838909  0.47989696     1.78800
O1157       O  0.47948928  0.51270210  0.29043578    -0.93400
O1158       O  0.44401252  0.55880359  0.05520582    -0.41200
O1159       O  0.48458832  0.54947086  0.42295031    -0.77900
O1160       O  0.49518378  0.52726312  0.99915589    -0.96500
O1161       O  0.02382390  0.97765223  0.46277665    -0.89900
O1162       O  0.01135479  0.50145329  0.38087629    -0.92700
C1163       C  0.38147030  0.52520517  0.48835746     1.01100
C1164       C  0.41197423  0.97761787  0.33384863     1.14000
C1165       C  0.43511789  0.92814156  0.02907204     1.04800
O1166       O  0.47474488  0.99058820  0.09142631    -0.94800
O1167       O  0.03072968  0.99757169  0.05696301    -0.90600
O1168       O  0.05141402  0.52986252  0.01180919    -0.83700
C1169       C  0.04893268  0.51739862  0.04821642     1.11400
O1170       O  0.48705431  0.90762150  0.37385358    -0.96800
Zr1171     Zr  0.00518459  0.95281721  0.40261695     1.88900
O1172       O  0.06978971  0.50245919  0.40752026    -0.73500
O1173       O  0.01883437  0.93724953  0.04260723    -0.52700
O1174       O  0.02216111  0.91006469  0.43996885    -0.97400
O1175       O  0.01141917  0.94651172  0.32611739    -0.54600
O1176       O  0.05589035  0.95641353  0.39467384    -0.74000
C1177       C  0.07464781  0.97637660  0.39586727     0.98400
O1178       O  0.06766965  0.56053421  0.45686038    -0.62800
O1179       O  0.43524521  0.56285628  0.34419696    -0.57600
O1180       O  0.02992982  0.56756785  0.39188815    -0.94300
O1181       O  0.99921501  0.55836400  0.33755926    -0.92700
O1182       O  0.43003300  0.58967490  0.44346383    -0.93100
O1183       O  0.47394193  0.59272812  0.00255412    -0.91900
C1184       C  0.01902180  0.57311802  0.35522020     1.17200
H1185       H  0.41402014  0.53109799  0.41083566     0.33100
H1186       H  0.50146891  0.53886184  0.02282681     0.44000
H1187       H  0.02425944  0.50313050  0.35704817     0.37500
H1188       H  0.46987302  0.93106108  0.46600366     0.34000
H1189       H  0.43091280  0.57556171  0.05586575     0.25800
H1190       H  0.01364988  0.93430872  0.07285070     0.31700
H1191       H  0.04133138  0.90609731  0.42802441     0.37600
H1192       H  0.41678092  0.59830084  0.46445785     0.32100
H1193       H  0.44475521  0.58013645  0.35607666     0.31000
H1194       H  0.47065514  0.52839345  0.27362630     0.32700
H1195       H  0.02812429  0.95846848  0.31830428     0.31600
H1196       H  0.49232746  0.59299006  0.98697582     0.35600
H1197       H  0.07913954  0.56177645  0.43040045     0.28400
H1198       H  0.37425539  0.94320503  0.45458814     0.32600
H1199       H  0.00398979  0.89740431  0.36246582     0.35400
H1200       H  0.43757689  0.56478669  0.31302972     0.28000
H1201       H  0.05848408  0.57963028  0.95977059     0.40900
H1202       H  0.47765779  0.01168197  0.09324045     0.31000
H1203       H  0.43240174  0.54257709  0.06614410     0.38600
H1204       H  0.99487063  0.95650621  0.31319869     0.30400
H1205       H  0.01073523  0.92033268  0.02770233     0.30500
H1206       H  0.39406211  0.92274366  0.42777440     0.30800
C1207       C  0.39761776  0.84574098  0.22582959     0.02900
C1208       C  0.40497034  0.84664578  0.18256055    -0.13300
C1209       C  0.41253333  0.87279101  0.16239474     0.00400
C1210       C  0.41157574  0.89812993  0.18725726    -0.14600
C1211       C  0.40207828  0.89763791  0.22946240     0.02900
C1212       C  0.39602312  0.87134906  0.24920286    -0.11200
H1213       H  0.40371218  0.82669911  0.16502688     0.08500
H1214       H  0.41675932  0.91895657  0.17423557     0.06000
H1215       H  0.38794167  0.87102923  0.28152085     0.05800
C1216       C  0.42655255  0.90111379  0.04949596     0.02900
C1217       C  0.42041756  0.90030218  0.09301165    -0.13300
C1218       C  0.41933252  0.87384663  0.11542442     0.00400
C1219       C  0.42541085  0.84841206  0.09223374    -0.11800
C1220       C  0.42994427  0.84911545  0.04808507     0.02900
C1221       C  0.42981045  0.87547817  0.52675972    -0.11200
H1222       H  0.41700030  0.92075186  0.10839408     0.08500
H1223       H  0.42742130  0.82782885  0.10792745     0.06000
H1224       H  0.43531608  0.87624130  0.49325436     0.05800
C1225       C  0.14656817  0.78199895  0.83189919     0.02900
C1226       C  0.15684668  0.80807371  0.84872804    -0.13300
C1227       C  0.14213697  0.82159430  0.88183610     0.00400
C1228       C  0.11689694  0.80942388  0.89727014    -0.11800
C1229       C  0.10621702  0.78372701  0.88028995     0.02900
C1230       C  0.12142803  0.76954622  0.84805227    -0.11200
H1231       H  0.17624582  0.81766705  0.83628863     0.08500
H1232       H  0.10501912  0.82052640  0.92198138     0.06000
H1233       H  0.11300392  0.74996035  0.83405739     0.05800
C1234       C  0.31530587  0.71663442  0.54643548     0.02900
C1235       C  0.33960585  0.73045776  0.52960211    -0.13300
C1236       C  0.35482892  0.71735998  0.99615729     0.00400
C1237       C  0.34473362  0.69156508  0.97845265    -0.11800
C1238       C  0.32055353  0.67792422  0.99477073     0.02900
C1239       C  0.30617007  0.69022446  0.02926368    -0.11200
H1240       H  0.34743553  0.75018187  0.54390262     0.08500
H1241       H  0.35652992  0.68133150  0.95285576     0.06000
H1242       H  0.28752531  0.67950516  0.54226524     0.05800
Zr1243     Zr  0.17672684  0.77191545  0.68755172     2.17500
O1244       O  0.13588468  0.80326471  0.70166385    -0.51600
O1245       O  0.13590723  0.74621683  0.65696991    -0.74800
O1246       O  0.17270622  0.81117015  0.63637093    -0.81600
O1247       O  0.17854245  0.74753013  0.80550269    -0.83300
O1248       O  0.20627625  0.80457646  0.58491752    -0.78900
O1249       O  0.15943294  0.78031155  0.75977036    -0.90600
O1250       O  0.15045343  0.70136246  0.63792350    -0.76500
O1251       O  0.19454054  0.74618559  0.62757248    -0.86000
O1252       O  0.18196890  0.72310475  0.71024535    -0.85700
O1253       O  0.22159088  0.79484627  0.67042417    -0.72500
O1254       O  0.21023607  0.77265234  0.74520545    -0.84600
Zr1255     Zr  0.27909922  0.71955100  0.68890448     2.26400
Zr1256     Zr  0.23942449  0.76819747  0.61055277     2.06300
Zr1257     Zr  0.21627880  0.72369103  0.76662122     2.10000
Zr1258     Zr  0.20074078  0.69769590  0.65078155     1.78800
O1259       O  0.22939612  0.73427073  0.83992789    -0.93400
O1260       O  0.19399650  0.68676760  0.57562102    -0.41200
O1261       O  0.23461964  0.69681688  0.70760430    -0.77900
O1262       O  0.24508881  0.71882646  0.63120482    -0.96500
O1263       O  0.27370570  0.76854858  0.66728949    -0.89900
O1264       O  0.26143361  0.74495476  0.74936296    -0.92700
C1265       C  0.13141986  0.72087534  0.64201897     1.01100
C1266       C  0.16201357  0.76867987  0.79666556     1.14000
C1267       C  0.18498945  0.81802300  0.60132603     1.04800
O1268       O  0.22421043  0.75537857  0.53895972    -0.94800
O1269       O  0.28054917  0.74846538  0.57318199    -0.90600
O1270       O  0.30135611  0.71632888  0.61844275    -0.83700
C1271       C  0.29882805  0.72871746  0.58198893     1.11400
O1272       O  0.23710025  0.83905566  0.75504261    -0.96800
Zr1273     Zr  0.25515171  0.79352706  0.72735435     1.88900
O1274       O  0.31979994  0.74395367  0.72243306    -0.73500
O1275       O  0.26877435  0.80848445  0.58688011    -0.52700
O1276       O  0.27236179  0.83588902  0.68929552    -0.97400
O1277       O  0.26119463  0.80032306  0.80379611    -0.54600
O1278       O  0.30583701  0.78993859  0.73563456    -0.74000
C1279       C  0.32461970  0.77000252  0.73428454     0.98400
O1280       O  0.31769836  0.68579665  0.67334943    -0.62800
O1281       O  0.18542418  0.68368628  0.78701083    -0.57600
O1282       O  0.27996074  0.67878607  0.73860311    -0.94300
O1283       O  0.24924433  0.68800732  0.79293820    -0.92700
O1284       O  0.18010272  0.65653502  0.68764692    -0.93100
O1285       O  0.22395470  0.65325017  0.62872501    -0.91900
C1286       C  0.26903063  0.67322659  0.77526611     1.17200
H1287       H  0.16403782  0.71511982  0.71986084     0.33100
H1288       H  0.25136927  0.70722319  0.60753742     0.44000
H1289       H  0.27436200  0.74337760  0.77317863     0.37500
H1290       H  0.21976415  0.81508151  0.66408349     0.34000
H1291       H  0.18079169  0.67009065  0.57519502     0.25800
H1292       H  0.26389711  0.81091375  0.55642522     0.31700
H1293       H  0.29116573  0.84036783  0.70210712     0.37600
H1294       H  0.16728933  0.64745998  0.66646545     0.32100
H1295       H  0.19420897  0.66651608  0.77364538     0.31000
H1296       H  0.22027014  0.71886759  0.85697134     0.32700
H1297       H  0.27820929  0.78884132  0.81168549     0.31600
H1298       H  0.24394120  0.65522649  0.63863267     0.35600
H1299       H  0.32924824  0.68467154  0.69974253     0.28400
H1300       H  0.12392545  0.80257239  0.67567324     0.32600
H1301       H  0.25398034  0.84913746  0.76686350     0.35400
H1302       H  0.18885240  0.68108062  0.81784456     0.28000
H1303       H  0.30855645  0.66666769  0.67063992     0.40900
H1304       H  0.22721694  0.73430088  0.53711453     0.31000
H1305       H  0.18250310  0.70298802  0.56439354     0.38600
H1306       H  0.24492074  0.78993460  0.81680508     0.30400
H1307       H  0.26047738  0.82561191  0.60099921     0.30500
H1308       H  0.14353560  0.82314453  0.70260160     0.30800
C1309       C  0.15205650  0.84869900  0.90101222     0.02900
C1310       C  0.16150475  0.84819312  0.94323313    -0.13300
C1311       C  0.16248232  0.87352325  0.46810293     0.00400
C1312       C  0.15495797  0.89968753  0.94793889    -0.11800
C1313       C  0.14760744  0.90059803  0.90465868     0.02900
C1314       C  0.14601766  0.87499157  0.88127852    -0.11200
H1315       H  0.16666418  0.82735944  0.95624914     0.08500
H1316       H  0.15374141  0.91963635  0.96547870     0.06000
H1317       H  0.13796266  0.87531707  0.84894668     0.05800
C1318       C  0.17652647  0.84509631  0.58094589     0.02900
C1319       C  0.17032367  0.84595340  0.53745321    -0.13300
C1320       C  0.16931222  0.87242431  0.51506174     0.00400
C1321       C  0.17551191  0.89782305  0.53825185    -0.11800
C1322       C  0.18014145  0.89707675  0.58237832     0.02900
C1323       C  0.17995920  0.87070673  0.60368141    -0.11200
H1324       H  0.16677851  0.82552405  0.52207626     0.08500
H1325       H  0.17752965  0.91840917  0.52256594     0.06000
H1326       H  0.18552048  0.86990816  0.63716442     0.05800
C1327       C  0.14319418  0.96656522  0.83372904     0.02900
C1328       C  0.11881587  0.48033475  0.85037678    -0.13300
C1329       C  0.10360836  0.96728726  0.88387055     0.00400
C1330       C  0.11377412  0.94158455  0.90178319    -0.11800
C1331       C  0.13803241  0.92799242  0.88562573     0.02900
C1332       C  0.15242975  0.94026038  0.85112151    -0.11200
H1333       H  0.11093516  0.49998791  0.83592473     0.08500
H1334       H  0.10197185  0.93137699  0.92739549     0.06000
H1335       H  0.17113436  0.92957801  0.83824338     0.05800
C1336       C  0.31201004  0.53198666  0.54852490     0.02900
C1337       C  0.30168469  0.55800707  0.03158744    -0.13300
C1338       C  0.31642729  0.57154792  0.99853388     0.00400
C1339       C  0.34176052  0.55946266  0.98328488    -0.11800
C1340       C  0.35245457  0.53379765  0.00034717     0.02900
C1341       C  0.33722052  0.01959894  0.53253239    -0.11200
H1342       H  0.28223320  0.56755349  0.54392223     0.08500
H1343       H  0.35367829  0.57058852  0.95863926     0.06000
H1344       H  0.34567069  0.00004730  0.54659998     0.05800
Zr1345     Zr  0.28168095  0.52211798  0.69273574     2.17500
O1346       O  0.32235337  0.55378040  0.67900022    -0.51600
O1347       O  0.32261922  0.49653125  0.72326357    -0.74800
O1348       O  0.28557966  0.56134925  0.74392952    -0.81600
O1349       O  0.28027314  0.99733023  0.57503426    -0.83300
O1350       O  0.25199714  0.55476396  0.79534491    -0.78900
O1351       O  0.29890839  0.53054402  0.62053230    -0.90600
O1352       O  0.30821518  0.95161409  0.74220414    -0.76500
O1353       O  0.26389371  0.49647051  0.75278111    -0.86000
O1354       O  0.27664448  0.97326231  0.67017272    -0.85700
O1355       O  0.23673607  0.54495647  0.70965849    -0.72500
O1356       O  0.24821038  0.52258796  0.63499490    -0.84600
Zr1357     Zr  0.17951773  0.96937600  0.69138741     2.26400
Zr1358     Zr  0.21891590  0.51837409  0.76960013     2.06300
Zr1359     Zr  0.24238461  0.97356503  0.61372993     2.10000
Zr1360     Zr  0.25791967  0.94792250  0.72970331     1.78800
O1361       O  0.22919719  0.98393727  0.54037945    -0.93400
O1362       O  0.26489498  0.93747166  0.80494915    -0.41200
O1363       O  0.22408887  0.94675432  0.67283712    -0.77900
O1364       O  0.21349560  0.96893849  0.74908761    -0.96500
O1365       O  0.18466017  0.51845409  0.71282814    -0.89900
O1366       O  0.19715439  0.99471258  0.63085204    -0.92700
C1367       C  0.32719120  0.97117523  0.73812156     1.01100
C1368       C  0.29656561  0.51869099  0.58376113     1.14000
C1369       C  0.27329446  0.56819765  0.77896000     1.04800
O1370       O  0.23361629  0.50595764  0.84158254    -0.94800
O1371       O  0.17798406  0.49833185  0.80702204    -0.90600
O1372       O  0.15707613  0.96629962  0.76170325    -0.83700
C1373       C  0.15966600  0.97863240  0.79818220     1.11400
O1374       O  0.22132155  0.58849760  0.62369935    -0.96800
Zr1375     Zr  0.20320263  0.54334909  0.65266847     1.88900
O1376       O  0.13866574  0.99347112  0.65778274    -0.73500
O1377       O  0.18957359  0.55884706  0.79266571    -0.52700
O1378       O  0.18618620  0.58600023  0.69020685    -0.97400
O1379       O  0.19658825  0.54983687  0.57628103    -0.54600
O1380       O  0.15244248  0.53959068  0.64520758    -0.74000
C1381       C  0.13372262  0.51957956  0.64633267     0.98400
O1382       O  0.14153637  0.93501359  0.70743339    -0.62800
O1383       O  0.27333867  0.93357067  0.59358137    -0.57600
O1384       O  0.17868159  0.92861378  0.64176211    -0.94300
O1385       O  0.20941641  0.93784397  0.58746492    -0.92700
O1386       O  0.27862326  0.90672438  0.69299829    -0.93100
O1387       O  0.23488827  0.90358075  0.75255485    -0.91900
C1388       C  0.18962346  0.92305948  0.60512220     1.17200
H1389       H  0.29461030  0.96532576  0.66060423     0.33100
H1390       H  0.20721993  0.95732578  0.77274895     0.44000
H1391       H  0.18422837  0.99303301  0.60704570     0.37500
H1392       H  0.23853308  0.56520433  0.71594062     0.34000
H1393       H  0.27816945  0.92085305  0.80551561     0.25800
H1394       H  0.19457148  0.56159989  0.82301834     0.31700
H1395       H  0.16741582  0.59049306  0.67729738     0.37600
H1396       H  0.29170692  0.89789139  0.71403832     0.32100
H1397       H  0.26423041  0.91631001  0.60619420     0.31000
H1398       H  0.23819290  0.96840933  0.52343058     0.32700
H1399       H  0.17964000  0.53816157  0.56870462     0.31600
H1400       H  0.21584637  0.90402912  0.73884749     0.35600
H1401       H  0.12990779  0.93359146  0.68114824     0.28400
H1402       H  0.33419125  0.55324387  0.70512457     0.32600
H1403       H  0.20434181  0.59887200  0.61277811     0.35400
H1404       H  0.27044181  0.93132364  0.56256470     0.28000
H1405       H  0.15100725  0.91605301  0.71024235     0.40900
H1406       H  0.23174401  0.48473291  0.84304612     0.31000
H1407       H  0.27635183  0.95380599  0.81589452     0.38600
H1408       H  0.21288531  0.53957358  0.56311698     0.30400
H1409       H  0.19777638  0.57584932  0.77810300     0.30500
H1410       H  0.31455902  0.57359928  0.67785450     0.30800
C1411       C  0.28183328  0.59522321  0.79937655     0.02900
C1412       C  0.28813983  0.59601994  0.84283722    -0.13300
C1413       C  0.28929349  0.62246760  0.86526212     0.00400
C1414       C  0.28316465  0.64791280  0.84210939    -0.11800
C1415       C  0.27846843  0.64721276  0.79798711     0.02900
C1416       C  0.27847225  0.62085317  0.77667657    -0.11200
H1417       H  0.29163374  0.57556633  0.85817071     0.08500
H1418       H  0.28124375  0.66849980  0.85781559     0.06000
H1419       H  0.27283940  0.62009180  0.74321750     0.05800
C1420       C  0.30648610  0.59863581  0.97933512     0.02900
C1421       C  0.31246721  0.62492180  0.99912948    -0.13300
C1422       C  0.31096898  0.65052877  0.97574358     0.00400
C1423       C  0.30370749  0.64962873  0.93243068    -0.11800
C1424       C  0.29615349  0.62349373  0.91222569     0.02900
C1425       C  0.29710131  0.59814420  0.93707230    -0.11200
H1426       H  0.32044825  0.62523533  0.53150264     0.08500
H1427       H  0.30499777  0.66957528  0.91490094     0.06000
H1428       H  0.29197488  0.57731434  0.92401384     0.05800
C1429       C  0.06185349  0.71422986  0.58196770     0.02900
C1430       C  0.08708002  0.72659252  0.59797544    -0.13300
C1431       C  0.10240212  0.71228246  0.62997321     0.00400
C1432       C  0.09176475  0.68654536  0.64686658    -0.11800
C1433       C  0.06640152  0.67450292  0.63167903     0.02900
C1434       C  0.05155666  0.68816329  0.59882149    -0.11200
H1435       H  0.09549034  0.74619762  0.58401818     0.08500
H1436       H  0.10372979  0.67534942  0.67139177     0.06000
H1437       H  0.03206780  0.67866051  0.58654735     0.05800
C1438       C  0.39311689  0.77969795  0.79659303     0.02900
C1439       C  0.40238885  0.80601079  0.77926757    -0.13300
C1440       C  0.38800486  0.81834675  0.74480647     0.00400
C1441       C  0.36375253  0.80479272  0.72856675    -0.11800
C1442       C  0.35356723  0.77906935  0.74637300     0.02900
C1443       C  0.36873584  0.76597083  0.77986867    -0.11200
H1444       H  0.42110509  0.81665375  0.79217720     0.08500
H1445       H  0.35197457  0.81504110  0.70296501     0.06000
H1446       H  0.36082275  0.74631016  0.79425877     0.05800
Zr1447     Zr  0.03168109  0.72420906  0.93760572     2.17500
O1448       O  0.07240424  0.69270103  0.95173957    -0.51600
O1449       O  0.07262018  0.74976634  0.90706417    -0.74800
O1450       O  0.03558589  0.68501049  0.88628871    -0.81600
O1451       O  0.03015441  0.74893055  0.55540843    -0.83300
O1452       O  0.00189893  0.69153186  0.83498418    -0.78900
O1453       O  0.04879203  0.71572643  0.50990656    -0.90600
O1454       O  0.05820794  0.79472380  0.88834795    -0.76500
O1455       O  0.01390854  0.74993334  0.87760346    -0.86000
O1456       O  0.02658795  0.77304818  0.96026788    -0.85700
O1457       O  0.48675534  0.70138905  0.92052834    -0.72500
O1458       O  0.49817557  0.72367923  0.49527618    -0.84600
Zr1459     Zr  0.42942401  0.77686364  0.93897230     2.26400
Zr1460     Zr  0.46893420  0.72805759  0.86065779     2.06300
Zr1461     Zr  0.49228708  0.77267300  0.51664792     2.10000
Zr1462     Zr  0.00788565  0.79845261  0.90078341     1.78800
O1463       O  0.47947031  0.76210011  0.59006751    -0.93400
O1464       O  0.01461920  0.80877982  0.82544728    -0.41200
O1465       O  0.47398755  0.79950869  0.95758401    -0.77900
O1466       O  0.46344257  0.77746060  0.88131094    -0.96500
O1467       O  0.43466994  0.72784281  0.91740651    -0.89900
O1468       O  0.44708400  0.75148452  0.99945945    -0.92700
C1469       C  0.07718891  0.77515232  0.89232529     1.01100
C1470       C  0.04642811  0.72755370  0.54670286     1.14000
C1471       C  0.02323609  0.67812299  0.85130740     1.04800
O1472       O  0.48383228  0.74092447  0.78893163    -0.94800
O1473       O  0.42787203  0.74789561  0.82332048    -0.90600
O1474       O  0.40698832  0.77994028  0.86863546    -0.83700
C1475       C  0.40956237  0.76760027  0.83215713     1.11400
O1476       O  0.47136709  0.65751916  0.50566284    -0.96800
Zr1477     Zr  0.45322319  0.70288074  0.97748584     1.88900
O1478       O  0.38866303  0.75256992  0.97256901    -0.73500
O1479       O  0.43954472  0.68777515  0.83702852    -0.52700
O1480       O  0.43596381  0.66049500  0.93954932    -0.97400
O1481       O  0.44673265  0.69628517  0.55388147    -0.54600
O1482       O  0.40251917  0.70648015  0.98520064    -0.74000
C1483       C  0.38377864  0.72646121  0.98409372     0.98400
O1484       O  0.39141418  0.81115907  0.92274631    -0.62800
O1485       O  0.02310170  0.81270911  0.53705041    -0.57600
O1486       O  0.42833942  0.81749888  0.98879621    -0.94300
O1487       O  0.45930330  0.80841574  0.54286783    -0.92700
O1488       O  0.02890557  0.83962601  0.93717386    -0.93100
O1489       O  0.98489771  0.84304060  0.87888798    -0.91900
C1490       C  0.43939300  0.82311625  0.52533951     1.17200
H1491       H  0.04453880  0.78098791  0.96988034     0.33100
H1492       H  0.45713374  0.78908620  0.85768062     0.44000
H1493       H  0.43415790  0.75311544  0.52327289     0.37500
H1494       H  0.48853965  0.68114531  0.91422042     0.34000
H1495       H  0.02810649  0.82521950  0.82473293     0.25800
H1496       H  0.44463314  0.68512560  0.80668982     0.31700
H1497       H  0.41771013  0.65537113  0.95354709     0.37600
H1498       H  0.04198510  0.84835580  0.91603458     0.32100
H1499       H  0.01429391  0.82987919  0.52371703     0.31000
H1500       H  0.48864767  0.77752145  0.60701437     0.32700
H1501       H  0.42979448  0.70794682  0.56155649     0.31600
H1502       H  0.46587034  0.84249431  0.89263673     0.35600
H1503       H  0.37967649  0.81249167  0.94893526     0.28400
H1504       H  0.08445862  0.69348832  0.92585193     0.32600
H1505       H  0.45446608  0.64731357  0.51717833     0.35400
H1506       H  0.01968897  0.81529280  0.56789402     0.28000
H1507       H  0.40084519  0.83015074  0.92011139     0.40900
H1508       H  0.98009221  0.76186785  0.78672826     0.31000
H1509       H  0.02581015  0.79228927  0.81439990     0.38600
H1510       H  0.46304636  0.70653674  0.56701749     0.30400
H1511       H  0.44763637  0.67068817  0.85151251     0.30500
H1512       H  0.06471175  0.67283271  0.95241390     0.30800
C1513       C  0.03174509  0.65107449  0.83089551     0.02900
C1514       C  0.02849060  0.62547220  0.85368999    -0.13300
C1515       C  0.02850953  0.59908560  0.83246002     0.00400
C1516       C  0.03323007  0.59830872  0.78834924    -0.11800
C1517       C  0.03924268  0.62372827  0.76507364     0.02900
C1518       C  0.03794779  0.65021988  0.78739578    -0.11200
H1519       H  0.02289903  0.62626940  0.88716291     0.08500
H1520       H  0.03138561  0.57767706  0.77275627     0.06000
H1521       H  0.04127478  0.67066853  0.77197951     0.05800
C1522       C  0.05647178  0.64741655  0.65092046     0.02900
C1523       C  0.04715220  0.64795642  0.69321172    -0.13300
C1524       C  0.04611391  0.62262933  0.71809870     0.00400
C1525       C  0.05358588  0.59645524  0.69791520    -0.11800
C1526       C  0.06088809  0.59551325  0.65461346     0.02900
C1527       C  0.06242002  0.62110351  0.63117624    -0.11200
H1528       H  0.04213916  0.66881811  0.70624009     0.08500
H1529       H  0.05479310  0.57650517  0.71544341     0.06000
H1530       H  0.07039508  0.62075338  0.59880042     0.05800
C1531       C  0.06535591  0.52946446  0.58382134     0.02900
C1532       C  0.05620240  0.55586875  0.60098666    -0.13300
C1533       C  0.07047021  0.56809030  0.63564434     0.00400
C1534       C  0.09458240  0.55438689  0.65210001    -0.11800
C1535       C  0.10473626  0.52863105  0.63433346     0.02900
C1536       C  0.08957493  0.01558022  0.60079072    -0.11200
H1537       H  0.03762172  0.56663559  0.58786650     0.08500
H1538       H  0.10632029  0.56457384  0.67779334     0.06000
H1539       H  0.09741526  0.99586123  0.58648712     0.05800
C1540       C  0.39652125  0.96430138  0.79862855     0.02900
C1541       C  0.37139073  0.47676211  0.78246308    -0.13300
C1542       C  0.35621991  0.96261493  0.75015509     0.00400
C1543       C  0.36693496  0.93695009  0.73310977    -0.11800
C1544       C  0.39213895  0.92474370  0.74862053     0.02900
C1545       C  0.40678140  0.93820946  0.78183736    -0.11200
H1546       H  0.36294775  0.49633051  0.79648791     0.08500
H1547       H  0.35509676  0.92588644  0.70831987     0.06000
H1548       H  0.42614221  0.92858127  0.79434894     0.05800
Zr1549     Zr  0.42684721  0.97423726  0.94280614     2.17500
O1550       O  0.38626571  0.94256787  0.92864517    -0.51600
O1551       O  0.38593572  0.99993848  0.97311097    -0.74800
O1552       O  0.42282784  0.93502897  0.99405587    -0.81600
O1553       O  0.42827331  0.49897945  0.82511522    -0.83300
O1554       O  0.45645007  0.94153311  0.54544012    -0.78900
O1555       O  0.40964346  0.96576981  0.87062073    -0.90600
O1556       O  0.40052694  0.54465308  0.99280417    -0.76500
O1557       O  0.44469193  0.99983221  0.00286151    -0.86000
O1558       O  0.43197676  0.52311318  0.92035525    -0.85700
O1559       O  0.47172311  0.95130138  0.95970498    -0.72500
O1560       O  0.46024935  0.97371591  0.88501757    -0.84600
Zr1561     Zr  0.02911503  0.52671406  0.94137314     2.26400
Zr1562     Zr  0.48961832  0.97783464  0.51963487     2.06300
Zr1563     Zr  0.46617799  0.52273991  0.86384571     2.10000
Zr1564     Zr  0.45078953  0.54838905  0.97989696     1.78800
O1565       O  0.47948938  0.51270179  0.79043582    -0.93400
O1566       O  0.44401302  0.55880397  0.55520582    -0.41200
O1567       O  0.48458821  0.54947089  0.92295031    -0.77900
O1568       O  0.49518392  0.52726305  0.49915572    -0.96500
O1569       O  0.02382380  0.97765216  0.96277675    -0.89900
O1570       O  0.01135476  0.50145337  0.88087635    -0.92700
C1571       C  0.38147015  0.52520522  0.98835702     1.01100
C1572       C  0.41197420  0.97761782  0.83384860     1.14000
C1573       C  0.43511806  0.92814151  0.52907209     1.04800
O1574       O  0.47474519  0.99058800  0.59142633    -0.94800
O1575       O  0.03072976  0.99757160  0.55696305    -0.90600
O1576       O  0.05141407  0.52986257  0.51180915    -0.83700
C1577       C  0.04893276  0.51739863  0.54821636     1.11400
O1578       O  0.48705416  0.90762147  0.87385379    -0.96800
Zr1579     Zr  0.00518452  0.95281718  0.90261703     1.88900
O1580       O  0.06978959  0.50245926  0.90752029    -0.73500
O1581       O  0.01883472  0.93724949  0.54260661    -0.52700
O1582       O  0.02216101  0.91006476  0.93996913    -0.97400
O1583       O  0.01141931  0.94651177  0.82611752    -0.54600
O1584       O  0.05589032  0.95641343  0.89467377    -0.74000
C1585       C  0.07464776  0.97637652  0.89586737     0.98400
O1586       O  0.06766919  0.56053466  0.95686073    -0.62800
O1587       O  0.43524528  0.56285621  0.84419655    -0.57600
O1588       O  0.02992981  0.56756794  0.89188822    -0.94300
O1589       O  0.99921495  0.55836412  0.83755939    -0.92700
O1590       O  0.43003308  0.58967501  0.94346389    -0.93100
O1591       O  0.47394212  0.59272824  0.50255373    -0.91900
C1592       C  0.01902176  0.57311814  0.85522030     1.17200
H1593       H  0.41402099  0.53109752  0.91083599     0.33100
H1594       H  0.50146904  0.53886169  0.52282630     0.44000
H1595       H  0.02425940  0.50313061  0.85704823     0.37500
H1596       H  0.46987292  0.93106139  0.96600362     0.34000
H1597       H  0.43091381  0.57556200  0.55586578     0.25800
H1598       H  0.01365063  0.93430886  0.57285016     0.31700
H1599       H  0.04133140  0.90609743  0.92802481     0.37600
H1600       H  0.41678053  0.59830032  0.96445704     0.32100
H1601       H  0.44475482  0.58013627  0.85607750     0.31000
H1602       H  0.47065680  0.52839401  0.77362651     0.32700
H1603       H  0.02812436  0.95846863  0.81830456     0.31600
H1604       H  0.49232669  0.59299093  0.48697363     0.35600
H1605       H  0.07913918  0.56177699  0.93040096     0.28400
H1606       H  0.37425534  0.94320488  0.95458768     0.32600
H1607       H  0.00398972  0.89740432  0.86246576     0.35400
H1608       H  0.43757775  0.56478713  0.81302980     0.28000
H1609       H  0.05848483  0.57962963  0.45977037     0.40900
H1610       H  0.47765679  0.01168235  0.59323973     0.31000
H1611       H  0.43240191  0.54257748  0.56614430     0.38600
H1612       H  0.99487072  0.95650622  0.81319878     0.30400
H1613       H  0.01073544  0.92033279  0.52770216     0.30500
H1614       H  0.39406221  0.92274345  0.92777408     0.30800
C1615       C  0.39761789  0.84574090  0.72582960     0.02900
C1616       C  0.40497048  0.84664569  0.68256060    -0.13300
C1617       C  0.41253342  0.87279094  0.66239479     0.00400
C1618       C  0.41157570  0.89812986  0.68725730    -0.14600
C1619       C  0.40207833  0.89763781  0.72946244     0.02900
C1620       C  0.39602328  0.87134895  0.74920288    -0.11200
H1621       H  0.40371235  0.82669903  0.66502696     0.08500
H1622       H  0.41675912  0.91895652  0.67423561     0.06000
H1623       H  0.38794187  0.87102910  0.78152084     0.05800
C1624       C  0.42655267  0.90111377  0.54949602     0.02900
C1625       C  0.42041788  0.90030215  0.59301178    -0.13300
C1626       C  0.41933264  0.87384657  0.61542447     0.00400
C1627       C  0.42541078  0.84841202  0.59223369    -0.11800
C1628       C  0.42994413  0.84911545  0.54808500     0.02900
C1629       C  0.42981053  0.87547816  0.02675973    -0.11200
H1630       H  0.41700089  0.92075184  0.60839425     0.08500
H1631       H  0.42742112  0.82782877  0.60792729     0.06000
H1632       H  0.43531627  0.87624127  0.99325443     0.05800
C1633       C  0.64656807  0.28199906  0.33189899     0.02900
C1634       C  0.65684663  0.30807377  0.34872796    -0.13300
C1635       C  0.64213695  0.32159434  0.38183605     0.00400
C1636       C  0.61689692  0.30942393  0.39727008    -0.11800
C1637       C  0.60621694  0.28372709  0.38028978     0.02900
C1638       C  0.62142790  0.26954635  0.34805200    -0.11200
H1639       H  0.67624577  0.31766709  0.33628857     0.08500
H1640       H  0.60501918  0.32052644  0.42198140     0.06000
H1641       H  0.61300380  0.24996049  0.33405703     0.05800
C1642       C  0.81530590  0.21663444  0.04643564     0.02900
C1643       C  0.83960596  0.23045769  0.02960238    -0.13300
C1644       C  0.85482895  0.21735995  0.49615740     0.00400
C1645       C  0.84473367  0.19156505  0.47845275    -0.11800
C1646       C  0.82055358  0.17792416  0.49477080     0.02900
C1647       C  0.80617010  0.19022441  0.52926371    -0.11200
H1648       H  0.84743574  0.25018173  0.04390297     0.08500
H1649       H  0.85652999  0.18133148  0.45285587     0.06000
H1650       H  0.78752520  0.17950530  0.04226519     0.05800
Zr1651     Zr  0.67672680  0.27191543  0.18755161     2.17500
O1652       O  0.63588461  0.30326463  0.20166383    -0.51600
O1653       O  0.63590719  0.24621675  0.15696988    -0.74800
O1654       O  0.67270616  0.31117015  0.13637086    -0.81600
O1655       O  0.67854251  0.24753034  0.30550269    -0.83300
O1656       O  0.70627628  0.30457650  0.08491758    -0.78900
O1657       O  0.65943280  0.28031151  0.25977016    -0.90600
O1658       O  0.65045346  0.20136246  0.13792318    -0.76500
O1659       O  0.69454047  0.24618554  0.12757240    -0.86000
O1660       O  0.68196893  0.22310477  0.21024536    -0.85700
O1661       O  0.72159086  0.29484625  0.17042408    -0.72500
O1662       O  0.71023597  0.27265239  0.24520541    -0.84600
Zr1663     Zr  0.77909916  0.21955095  0.18890454     2.26400
Zr1664     Zr  0.73942445  0.26819742  0.11055275     2.06300
Zr1665     Zr  0.71627878  0.22369110  0.26662127     2.10000
Zr1666     Zr  0.70074075  0.19769589  0.15078157     1.78800
O1667       O  0.72939622  0.23427072  0.33992791    -0.93400
O1668       O  0.69399694  0.18676779  0.07562095    -0.41200
O1669       O  0.73461956  0.19681687  0.20760437    -0.77900
O1670       O  0.74508878  0.21882643  0.13120489    -0.96500
O1671       O  0.77370567  0.26854855  0.16728950    -0.89900
O1672       O  0.76143357  0.24495477  0.24936296    -0.92700
C1673       C  0.63141986  0.22087530  0.14201877     1.01100
C1674       C  0.66201351  0.26867997  0.29666543     1.14000
C1675       C  0.68498947  0.31802303  0.10132603     1.04800
O1676       O  0.72421006  0.25537819  0.03896005    -0.94800
O1677       O  0.78054913  0.24846531  0.07318211    -0.90600
O1678       O  0.80135618  0.21632894  0.11844293    -0.83700
C1679       C  0.79882808  0.22871748  0.08198910     1.11400
O1680       O  0.73710038  0.33905570  0.25504272    -0.96800
Zr1681     Zr  0.75515164  0.29352704  0.22735432     1.88900
O1682       O  0.81979993  0.24395363  0.22243305    -0.73500
O1683       O  0.76877417  0.30848432  0.08687933    -0.52700
O1684       O  0.77236164  0.33588913  0.18929562    -0.97400
O1685       O  0.76119452  0.30032285  0.30379614    -0.54600
O1686       O  0.80583692  0.28993853  0.23563457    -0.74000
C1687       C  0.82461966  0.27000249  0.23428449     0.98400
O1688       O  0.81769821  0.18579651  0.17334925    -0.62800
O1689       O  0.68542406  0.18368642  0.28701076    -0.57600
O1690       O  0.77996076  0.17878610  0.23860327    -0.94300
O1691       O  0.74924423  0.18800728  0.29293824    -0.92700
O1692       O  0.68010257  0.15653515  0.18764703    -0.93100
O1693       O  0.72395453  0.15325011  0.12872503    -0.91900
C1694       C  0.76903059  0.17322659  0.27526624     1.17200
H1695       H  0.66403786  0.21511984  0.21986088     0.33100
H1696       H  0.75136939  0.20722301  0.10753721     0.44000
H1697       H  0.77436197  0.24337757  0.27317870     0.37500
H1698       H  0.71976420  0.31508157  0.16408328     0.34000
H1699       H  0.68079221  0.17009069  0.07519473     0.25800
H1700       H  0.76389669  0.31091354  0.05642403     0.31700
H1701       H  0.79116566  0.34036774  0.20210676     0.37600
H1702       H  0.66728919  0.14745995  0.16646525     0.32100
H1703       H  0.69420887  0.16651642  0.27364606     0.31000
H1704       H  0.72027030  0.21886737  0.35697142     0.32700
H1705       H  0.77820905  0.28884105  0.31168552     0.31600
H1706       H  0.74394120  0.15522646  0.13863259     0.35600
H1707       H  0.82924811  0.18467147  0.19974174     0.28400
H1708       H  0.62392529  0.30257225  0.17567332     0.32600
H1709       H  0.75398019  0.34913718  0.26686353     0.35400
H1710       H  0.68885198  0.18108102  0.31784505     0.28000
H1711       H  0.80855608  0.16666714  0.17063989     0.40900
H1712       H  0.72721772  0.23430027  0.03711446     0.31000
H1713       H  0.68250362  0.20298804  0.06439358     0.38600
H1714       H  0.74492044  0.28993435  0.31680516     0.30400
H1715       H  0.76047737  0.32561180  0.10099821     0.30500
H1716       H  0.64353547  0.32314449  0.20260150     0.30800
C1717       C  0.65205651  0.34869902  0.40101212     0.02900
C1718       C  0.66150480  0.34819313  0.44323302    -0.13300
C1719       C  0.66248227  0.37352330  0.96810303     0.00400
C1720       C  0.65495811  0.39968756  0.44793881    -0.11800
C1721       C  0.64760744  0.40059805  0.40465865     0.02900
C1722       C  0.64601758  0.37499158  0.38127849    -0.11200
H1723       H  0.66666417  0.32735944  0.45624902     0.08500
H1724       H  0.65374164  0.41963640  0.46547860     0.06000
H1725       H  0.63796245  0.37531710  0.34894670     0.05800
C1726       C  0.67652655  0.34509637  0.08094592     0.02900
C1727       C  0.67032371  0.34595348  0.03745326    -0.13300
C1728       C  0.66931214  0.37242439  0.01506183     0.00400
C1729       C  0.67551175  0.39782314  0.03825196    -0.11800
C1730       C  0.68014134  0.39707683  0.08237843     0.02900
C1731       C  0.67995927  0.37070679  0.10368146    -0.11200
H1732       H  0.66677862  0.32552413  0.02207630     0.08500
H1733       H  0.67752944  0.41840928  0.02256608     0.06000
H1734       H  0.68552065  0.36990821  0.13716443     0.05800
C1735       C  0.64319411  0.46656520  0.33372902     0.02900
C1736       C  0.61881591  0.98033473  0.35037669    -0.13300
C1737       C  0.60360828  0.46728720  0.38387045     0.00400
C1738       C  0.61377407  0.44158451  0.40178312    -0.11800
C1739       C  0.63803241  0.42799243  0.38562572     0.02900
C1740       C  0.65242973  0.44026040  0.35112154    -0.11200
H1741       H  0.61093519  0.99998792  0.33592473     0.08500
H1742       H  0.60197183  0.43137696  0.42739541     0.06000
H1743       H  0.67113437  0.42957806  0.33824346     0.05800
C1744       C  0.81201001  0.03198671  0.04852464     0.02900
C1745       C  0.80168487  0.05800702  0.53158760    -0.13300
C1746       C  0.81642740  0.07154784  0.49853396     0.00400
C1747       C  0.84176065  0.05946259  0.48328504    -0.11800
C1748       C  0.85245474  0.03379764  0.50034742     0.02900
C1749       C  0.83722035  0.51959890  0.03253207    -0.11200
H1750       H  0.78223313  0.06755352  0.04392205     0.08500
H1751       H  0.85367841  0.07058843  0.45863942     0.06000
H1752       H  0.84567052  0.50004723  0.04659967     0.05800
Zr1753     Zr  0.78168106  0.02211802  0.19273558     2.17500
O1754       O  0.82235350  0.05378039  0.17900003    -0.51600
O1755       O  0.82261932  0.99653135  0.22326355    -0.74800
O1756       O  0.78557979  0.06134924  0.24392950    -0.81600
O1757       O  0.78027307  0.49733022  0.07503419    -0.83300
O1758       O  0.75199719  0.05476395  0.29534478    -0.78900
O1759       O  0.79890831  0.03054403  0.12053201    -0.90600
O1760       O  0.80821521  0.45161419  0.24220393    -0.76500
O1761       O  0.76389386  0.99647057  0.25278101    -0.86000
O1762       O  0.77664447  0.47326227  0.17017273    -0.85700
O1763       O  0.73673620  0.04495649  0.20965833    -0.72500
O1764       O  0.74821044  0.02258804  0.13499480    -0.84600
Zr1765     Zr  0.67951777  0.46937602  0.19138757     2.26400
Zr1766     Zr  0.71891600  0.01837407  0.26959996     2.06300
Zr1767     Zr  0.74238460  0.47356501  0.11372995     2.10000
Zr1768     Zr  0.75791962  0.44792247  0.22970336     1.78800
O1769       O  0.72919752  0.48393714  0.04037923    -0.93400
O1770       O  0.76489504  0.43747141  0.30494912    -0.41200
O1771       O  0.72408884  0.44675428  0.17283713    -0.77900
O1772       O  0.71349558  0.46893848  0.24908774    -0.96500
O1773       O  0.68466023  0.01845417  0.21282803    -0.89900
O1774       O  0.69715439  0.49471255  0.13085210    -0.92700
C1775       C  0.82719123  0.47117534  0.23812149     1.01100
C1776       C  0.79656556  0.01869101  0.08376082     1.14000
C1777       C  0.77329454  0.06819762  0.27895997     1.04800
O1778       O  0.73361653  0.00595807  0.34158247    -0.94800
O1779       O  0.67798418  0.99833176  0.30702197    -0.90600
O1780       O  0.65707612  0.46629955  0.26170332    -0.83700
C1781       C  0.65966594  0.47863238  0.29818223     1.11400
O1782       O  0.72132157  0.08849777  0.12369937    -0.96800
Zr1783     Zr  0.70320271  0.04334917  0.15266835     1.88900
O1784       O  0.63866572  0.49347108  0.15778305    -0.73500
O1785       O  0.68957358  0.05884703  0.29266496    -0.52700
O1786       O  0.68618641  0.08600028  0.19020692    -0.97400
O1787       O  0.69658838  0.04983688  0.07628088    -0.54600
O1788       O  0.65244258  0.03959071  0.14520731    -0.74000
C1789       C  0.63372273  0.01957957  0.14633239     0.98400
O1790       O  0.64153659  0.43501346  0.20743372    -0.62800
O1791       O  0.77333872  0.43357062  0.09358168    -0.57600
O1792       O  0.67868149  0.42861384  0.14176222    -0.94300
O1793       O  0.70941623  0.43784411  0.08746496    -0.92700
O1794       O  0.77862334  0.40672436  0.19299841    -0.93100
O1795       O  0.73488815  0.40358070  0.25255459    -0.91900
C1796       C  0.68962332  0.42305958  0.10512227     1.17200
H1797       H  0.79460966  0.46532596  0.16060458     0.33100
H1798       H  0.70721980  0.45732564  0.27274936     0.44000
H1799       H  0.68422870  0.49303300  0.10704632     0.37500
H1800       H  0.73853326  0.06520417  0.21594035     0.34000
H1801       H  0.77816939  0.42085275  0.30551544     0.25800
H1802       H  0.69457107  0.06159975  0.32301725     0.31700
H1803       H  0.66741607  0.09049295  0.17729783     0.37600
H1804       H  0.79170681  0.39789144  0.21403828     0.32100
H1805       H  0.76423049  0.41630999  0.10619476     0.31000
H1806       H  0.73819377  0.46840986  0.02343056     0.32700
H1807       H  0.67963984  0.03816149  0.06870438     0.31600
H1808       H  0.71584641  0.40402878  0.23884617     0.35600
H1809       H  0.62990807  0.43359131  0.18114880     0.28400
H1810       H  0.83419121  0.05324381  0.20512398     0.32600
H1811       H  0.70434191  0.09887205  0.11277808     0.35400
H1812       H  0.77044183  0.43132346  0.06256517     0.28000
H1813       H  0.65100756  0.41605302  0.21024272     0.40900
H1814       H  0.73174425  0.98473318  0.34304638     0.31000
H1815       H  0.77635204  0.45380565  0.31589454     0.38600
H1816       H  0.71288525  0.03957351  0.06311685     0.30400
H1817       H  0.69777679  0.07584959  0.27810220     0.30500
H1818       H  0.81455907  0.07359939  0.17785431     0.30800
C1819       C  0.78183336  0.09522317  0.29937659     0.02900
C1820       C  0.78814008  0.09601990  0.34283718    -0.13300
C1821       C  0.78929369  0.12246756  0.36526211     0.00400
C1822       C  0.78316475  0.14791277  0.34210945    -0.11800
C1823       C  0.77846842  0.14721275  0.29798722     0.02900
C1824       C  0.77847217  0.12085316  0.27667670    -0.11200
H1825       H  0.79163410  0.07556629  0.35817063     0.08500
H1826       H  0.78124381  0.16849974  0.35781568     0.06000
H1827       H  0.77283918  0.12009178  0.24321770     0.05800
C1828       C  0.80648618  0.09863573  0.47933515     0.02900
C1829       C  0.81246728  0.12492173  0.49912950    -0.13300
C1830       C  0.81096905  0.15052872  0.47574360     0.00400
C1831       C  0.80370756  0.14962870  0.43243071    -0.11800
C1832       C  0.79615361  0.12349369  0.41222570     0.02900
C1833       C  0.79710142  0.09814413  0.43707232    -0.11200
H1834       H  0.82044814  0.12523539  0.03150262     0.08500
H1835       H  0.80499785  0.16957526  0.41490097     0.06000
H1836       H  0.79197503  0.07731427  0.42401382     0.05800
C1837       C  0.56185347  0.21422984  0.08196766     0.02900
C1838       C  0.58708004  0.22659245  0.09797525    -0.13300
C1839       C  0.60240214  0.21228240  0.12997296     0.00400
C1840       C  0.59176473  0.18654532  0.14686639    -0.11800
C1841       C  0.56640148  0.17450289  0.13167893     0.02900
C1842       C  0.55155660  0.18816330  0.09882150    -0.11200
H1843       H  0.59549034  0.24619753  0.08401792     0.08500
H1844       H  0.60372975  0.17534940  0.17139156     0.06000
H1845       H  0.53206773  0.17866057  0.08654738     0.05800
C1846       C  0.89311685  0.27969797  0.29659290     0.02900
C1847       C  0.90238883  0.30601076  0.27926740    -0.13300
C1848       C  0.88800478  0.31834680  0.24480642     0.00400
C1849       C  0.86375240  0.30479283  0.22856672    -0.11800
C1850       C  0.85356716  0.27906940  0.24637287     0.02900
C1851       C  0.86873584  0.26597082  0.27986846    -0.11200
H1852       H  0.92110516  0.31665364  0.29217689     0.08500
H1853       H  0.85197442  0.31504126  0.20296501     0.06000
H1854       H  0.86082279  0.24631008  0.29425841     0.05800
Zr1855     Zr  0.53168110  0.22420904  0.43760557     2.17500
O1856       O  0.57240420  0.19270097  0.45173931    -0.51600
O1857       O  0.57262024  0.24976634  0.40706414    -0.74800
O1858       O  0.53558587  0.18501039  0.38628873    -0.81600
O1859       O  0.53015446  0.24893053  0.05540845    -0.83300
O1860       O  0.50189896  0.19153183  0.33498415    -0.78900
O1861       O  0.54879206  0.21572642  0.00990653    -0.90600
O1862       O  0.55820784  0.29472375  0.38834795    -0.76500
O1863       O  0.51390847  0.24993335  0.37760340    -0.86000
O1864       O  0.52658786  0.27304814  0.46026774    -0.85700
O1865       O  0.98675538  0.20138899  0.42052813    -0.72500
O1866       O  0.99817569  0.22367928  0.99527633    -0.84600
Zr1867     Zr  0.92942395  0.27686356  0.43897229     2.26400
Zr1868     Zr  0.96893421  0.22805757  0.36065762     2.06300
Zr1869     Zr  0.99228723  0.27267306  0.01664801     2.10000
Zr1870     Zr  0.50788555  0.29845262  0.40078335     1.78800
O1871       O  0.97947042  0.26210011  0.09006757    -0.93400
O1872       O  0.51461882  0.30877979  0.32544713    -0.41200
O1873       O  0.97398745  0.29950860  0.45758408    -0.77900
O1874       O  0.96344246  0.27746053  0.38131089    -0.96500
O1875       O  0.93466997  0.22784275  0.41740635    -0.89900
O1876       O  0.94708408  0.25148438  0.49945927    -0.92700
C1877       C  0.57718887  0.27515233  0.39232526     1.01100
C1878       C  0.54642813  0.22755367  0.04670284     1.14000
C1879       C  0.52323609  0.17812292  0.35130740     1.04800
O1880       O  0.98383235  0.24092420  0.28893142    -0.94800
O1881       O  0.92787210  0.24789572  0.32332028    -0.90600
O1882       O  0.90698831  0.27994029  0.36863536    -0.83700
C1883       C  0.90956237  0.26760032  0.33215701     1.11400
O1884       O  0.97136740  0.15751927  0.00566292    -0.96800
Zr1885     Zr  0.95322321  0.20288065  0.47748562     1.88900
O1886       O  0.88866296  0.25256988  0.47256899    -0.73500
O1887       O  0.93954473  0.18777517  0.33702837    -0.52700
O1888       O  0.93596368  0.16049491  0.43954925    -0.97400
O1889       O  0.94673275  0.19628513  0.05388164    -0.54600
O1890       O  0.90251921  0.20648015  0.48520066    -0.74000
C1891       C  0.88377863  0.22646118  0.48409377     0.98400
O1892       O  0.89141420  0.31115914  0.42274653    -0.62800
O1893       O  0.52310180  0.31270913  0.03705046    -0.57600
O1894       O  0.92833932  0.31749881  0.48879620    -0.94300
O1895       O  0.95930334  0.30841573  0.04286787    -0.92700
O1896       O  0.52890558  0.33962590  0.43717395    -0.93100
O1897       O  0.48489802  0.34304095  0.37888839    -0.91900
C1898       C  0.93939306  0.32311626  0.02533954     1.17200
H1899       H  0.54453869  0.28098789  0.46988012     0.33100
H1900       H  0.95713339  0.28908662  0.35767952     0.44000
H1901       H  0.93415815  0.25311554  0.02327304     0.37500
H1902       H  0.98853966  0.18114525  0.41422020     0.34000
H1903       H  0.52810613  0.32521936  0.32473258     0.25800
H1904       H  0.94463327  0.18512559  0.30668904     0.31700
H1905       H  0.91770982  0.15537117  0.45354711     0.37600
H1906       H  0.54198548  0.34835574  0.41603441     0.32100
H1907       H  0.51429400  0.32987909  0.02371728     0.31000
H1908       H  0.98864721  0.27752162  0.10701424     0.32700
H1909       H  0.92979470  0.20794704  0.06155670     0.31600
H1910       H  0.96587020  0.34249425  0.39263566     0.35600
H1911       H  0.87967640  0.31249170  0.44893582     0.28400
H1912       H  0.58445852  0.19348826  0.42585173     0.32600
H1913       H  0.95446644  0.14731362  0.01717844     0.35400
H1914       H  0.51968911  0.31529271  0.06789417     0.28000
H1915       H  0.90084505  0.33015045  0.42011177     0.40900
H1916       H  0.48009160  0.26186730  0.28672779     0.31000
H1917       H  0.52580977  0.29228906  0.31439953     0.38600
H1918       H  0.96304653  0.20653640  0.06701755     0.30400
H1919       H  0.94763638  0.17068815  0.35151211     0.30500
H1920       H  0.56471161  0.17283255  0.45241363     0.30800
C1921       C  0.53174507  0.15107441  0.33089551     0.02900
C1922       C  0.52849056  0.12547212  0.35368998    -0.13300
C1923       C  0.52850955  0.09908553  0.33245998     0.00400
C1924       C  0.53323011  0.09830866  0.28834922    -0.11800
C1925       C  0.53924263  0.12372822  0.26507360     0.02900
C1926       C  0.53794772  0.15021982  0.28739576    -0.11200
H1927       H  0.52289893  0.12626928  0.38716288     0.08500
H1928       H  0.53138575  0.07767698  0.27275627     0.06000
H1929       H  0.54127468  0.17066846  0.27197948     0.05800
C1930       C  0.55647175  0.14741652  0.15092038     0.02900
C1931       C  0.54715221  0.14795640  0.19321168    -0.13300
C1932       C  0.54611392  0.12262932  0.21809866     0.00400
C1933       C  0.55358593  0.09645523  0.19791518    -0.11800
C1934       C  0.56088816  0.09551323  0.15461345     0.02900
C1935       C  0.56242006  0.12110346  0.13117621    -0.11200
H1936       H  0.54213920  0.16881810  0.20624005     0.08500
H1937       H  0.55479315  0.07650517  0.21544337     0.06000
H1938       H  0.57039516  0.12075332  0.09880040     0.05800
C1939       C  0.56535591  0.02946442  0.08382135     0.02900
C1940       C  0.55620238  0.05586867  0.10098677    -0.13300
C1941       C  0.57047026  0.06809026  0.13564435     0.00400
C1942       C  0.59458250  0.05438688  0.15209986    -0.11800
C1943       C  0.60473636  0.02863105  0.13433326     0.02900
C1944       C  0.58957496  0.51558022  0.10079060    -0.11200
H1945       H  0.53762165  0.06663546  0.08786676     0.08500
H1946       H  0.60632042  0.06457384  0.17779314     0.06000
H1947       H  0.59741530  0.49586126  0.08648689     0.05800
C1948       C  0.89652122  0.46430135  0.29862867     0.02900
C1949       C  0.87139074  0.97676206  0.28246313    -0.13300
C1950       C  0.85621996  0.46261507  0.25015507     0.00400
C1951       C  0.86693505  0.43695028  0.23310961    -0.11800
C1952       C  0.89213895  0.42474377  0.24862050     0.02900
C1953       C  0.90678136  0.43820941  0.28183746    -0.11200
H1954       H  0.86294767  0.99633037  0.29648811     0.08500
H1955       H  0.85509689  0.42588672  0.20831959     0.06000
H1956       H  0.92614212  0.42858116  0.29434913     0.05800
Zr1957     Zr  0.92684727  0.47423723  0.44280621     2.17500
O1958       O  0.88626577  0.44256785  0.42864539    -0.51600
O1959       O  0.88593584  0.49993839  0.47311127    -0.74800
O1960       O  0.92282803  0.43502879  0.49405577    -0.81600
O1961       O  0.92827329  0.99897948  0.32511530    -0.83300
O1962       O  0.95644997  0.44153319  0.04544007    -0.78900
O1963       O  0.90964342  0.46576979  0.37062084    -0.90600
O1964       O  0.90052713  0.04465301  0.49280455    -0.76500
O1965       O  0.94469206  0.49983224  0.50286151    -0.86000
O1966       O  0.93197686  0.02311319  0.42035528    -0.85700
O1967       O  0.97172317  0.45130136  0.45970498    -0.72500
O1968       O  0.96024936  0.47371592  0.38501758    -0.84600
Zr1969     Zr  0.52911521  0.02671403  0.44137303     2.26400
Zr1970     Zr  0.98961824  0.47783473  0.01963492     2.06300
Zr1971     Zr  0.96617810  0.02273989  0.36384569     2.10000
Zr1972     Zr  0.95078969  0.04838902  0.47989697     1.78800
O1973       O  0.97948965  0.01270175  0.29043589    -0.93400
O1974       O  0.94401268  0.05880369  0.05520583    -0.41200
O1975       O  0.98458833  0.04947085  0.42295029    -0.77900
O1976       O  0.99518384  0.02726311  0.99915588    -0.96500
O1977       O  0.52382385  0.47765215  0.46277663    -0.89900
O1978       O  0.51135488  0.00145333  0.38087630    -0.92700
C1979       C  0.88147031  0.02520519  0.48835725     1.01100
C1980       C  0.91197417  0.47761778  0.33384869     1.14000
C1981       C  0.93511798  0.42814152  0.02907208     1.04800
O1982       O  0.97474506  0.49058820  0.09142633    -0.94800
O1983       O  0.53072962  0.49757170  0.05696310    -0.90600
O1984       O  0.55141411  0.02986252  0.01180917    -0.83700
C1985       C  0.54893274  0.01739861  0.04821639     1.11400
O1986       O  0.98705426  0.40762147  0.37385352    -0.96800
Zr1987     Zr  0.50518447  0.45281718  0.40261692     1.88900
O1988       O  0.56978969  0.00245921  0.40752001    -0.73500
O1989       O  0.51883454  0.43724957  0.04260684    -0.52700
O1990       O  0.52216086  0.41006469  0.43996890    -0.97400
O1991       O  0.51141921  0.44651172  0.32611740    -0.54600
O1992       O  0.55589025  0.45641340  0.39467379    -0.74000
C1993       C  0.57464771  0.47637648  0.39586735     0.98400
O1994       O  0.56766966  0.06053440  0.45686038    -0.62800
O1995       O  0.93524536  0.06285615  0.34419660    -0.57600
O1996       O  0.52992981  0.06756789  0.39188814    -0.94300
O1997       O  0.49921496  0.05836409  0.33755929    -0.92700
O1998       O  0.93003316  0.08967478  0.44346354    -0.93100
O1999       O  0.97394210  0.09272817  0.00255382    -0.91900
C2000       C  0.51902177  0.07311808  0.35522023     1.17200
H2001       H  0.91402107  0.03109749  0.41083604     0.33100
H2002       H  0.00146907  0.03886194  0.02282690     0.44000
H2003       H  0.52425948  0.00313053  0.35704814     0.37500
H2004       H  0.96987299  0.43106119  0.46600369     0.34000
H2005       H  0.93091319  0.07556162  0.05586580     0.25800
H2006       H  0.51365013  0.43430867  0.07285058     0.31700
H2007       H  0.54133142  0.40609744  0.42802465     0.37600
H2008       H  0.91678090  0.09830049  0.46445706     0.32100
H2009       H  0.94475525  0.08013632  0.35607670     0.31000
H2010       H  0.97065645  0.02839361  0.27362636     0.32700
H2011       H  0.52812415  0.45846852  0.31830439     0.31600
H2012       H  0.99232730  0.09299047  0.98697443     0.35600
H2013       H  0.57913944  0.06177681  0.43040058     0.28400
H2014       H  0.87425532  0.44320484  0.45458827     0.32600
H2015       H  0.50398964  0.39740439  0.36246556     0.35400
H2016       H  0.93757734  0.06478667  0.31302955     0.28000
H2017       H  0.55848446  0.07962989  0.95977040     0.40900
H2018       H  0.97765772  0.51168226  0.09324028     0.31000
H2019       H  0.93240183  0.04257711  0.06614419     0.38600
H2020       H  0.49487039  0.45650633  0.31319848     0.30400
H2021       H  0.51073550  0.42033288  0.02770211     0.30500
H2022       H  0.89406221  0.42274341  0.42777429     0.30800
C2023       C  0.89761788  0.34574094  0.22582963     0.02900
C2024       C  0.90497055  0.34664573  0.18256068    -0.13300
C2025       C  0.91253346  0.37279096  0.16239485     0.00400
C2026       C  0.91157574  0.39812987  0.18725734    -0.14600
C2027       C  0.90207826  0.39763784  0.22946244     0.02900
C2028       C  0.89602315  0.37134898  0.24920287    -0.11200
H2029       H  0.90371241  0.32669907  0.16502705     0.08500
H2030       H  0.91675919  0.41895651  0.17423564     0.06000
H2031       H  0.88794162  0.37102911  0.28152076     0.05800
C2032       C  0.92655273  0.40111376  0.04949606     0.02900
C2033       C  0.92041789  0.40030216  0.09301182    -0.13300
C2034       C  0.91933263  0.37384658  0.11542451     0.00400
C2035       C  0.92541080  0.34841201  0.09223375    -0.11800
C2036       C  0.92994415  0.34911543  0.04808505     0.02900
C2037       C  0.92981058  0.37547808  0.52675981    -0.11200
H2038       H  0.91700088  0.42075186  0.10839429     0.08500
H2039       H  0.92742125  0.32782879  0.10792740     0.06000
H2040       H  0.93531633  0.37624118  0.49325451     0.05800
C2041       C  0.64656819  0.28199900  0.83189917     0.02900
C2042       C  0.65684675  0.30807371  0.84872807    -0.13300
C2043       C  0.64213707  0.32159433  0.88183613     0.00400
C2044       C  0.61689701  0.30942397  0.89727012    -0.11800
C2045       C  0.60621705  0.28372711  0.88028992     0.02900
C2046       C  0.62142805  0.26954630  0.84805225    -0.11200
H2047       H  0.67624588  0.31766700  0.83628867     0.08500
H2048       H  0.60501920  0.32052652  0.92198132     0.06000
H2049       H  0.61300392  0.24996043  0.83405739     0.05800
C2050       C  0.81530584  0.21663440  0.54643554     0.02900
C2051       C  0.83960587  0.23045771  0.52960231    -0.13300
C2052       C  0.85482898  0.21735991  0.99615738     0.00400
C2053       C  0.84473361  0.19156504  0.97845267    -0.11800
C2054       C  0.82055349  0.17792423  0.99477071     0.02900
C2055       C  0.80617005  0.19022451  0.02926370    -0.11200
H2056       H  0.84743558  0.25018177  0.54390289     0.08500
H2057       H  0.85652991  0.18133142  0.95285576     0.06000
H2058       H  0.78752526  0.17950517  0.54226521     0.05800
Zr2059     Zr  0.67672681  0.27191547  0.68755170     2.17500
O2060       O  0.63588470  0.30326475  0.70166418    -0.51600
O2061       O  0.63590722  0.24621670  0.65697017    -0.74800
O2062       O  0.67270600  0.31117007  0.63637082    -0.81600
O2063       O  0.67854243  0.24753014  0.80550271    -0.83300
O2064       O  0.70627618  0.30457654  0.58491759    -0.78900
O2065       O  0.65943306  0.28031164  0.75977038    -0.90600
O2066       O  0.65045348  0.20136248  0.63792308    -0.76500
O2067       O  0.69454053  0.24618559  0.62757247    -0.86000
O2068       O  0.68196889  0.22310479  0.71024534    -0.85700
O2069       O  0.72159081  0.29484625  0.67042406    -0.72500
O2070       O  0.71023599  0.27265238  0.74520545    -0.84600
Zr2071     Zr  0.77909914  0.21955104  0.68890448     2.26400
Zr2072     Zr  0.73942446  0.26819752  0.61055273     2.06300
Zr2073     Zr  0.71627878  0.22369109  0.76662122     2.10000
Zr2074     Zr  0.70074077  0.19769592  0.65078155     1.78800
O2075       O  0.72939614  0.23427061  0.83992790    -0.93400
O2076       O  0.69399683  0.18676751  0.57562100    -0.41200
O2077       O  0.73461958  0.19681694  0.70760433    -0.77900
O2078       O  0.74508876  0.21882653  0.63120484    -0.96500
O2079       O  0.77370565  0.26854864  0.66728950    -0.89900
O2080       O  0.76143353  0.24495483  0.74936291    -0.92700
C2081       C  0.63141988  0.22087530  0.64201885     1.01100
C2082       C  0.66201361  0.26867992  0.79666556     1.14000
C2083       C  0.68498930  0.31802299  0.60132601     1.04800
O2084       O  0.72421041  0.25537862  0.53895970    -0.94800
O2085       O  0.78054912  0.24846534  0.57318199    -0.90600
O2086       O  0.80135597  0.21632876  0.61844273    -0.83700
C2087       C  0.79882798  0.22871741  0.58198894     1.11400
O2088       O  0.73710004  0.33905574  0.75504234    -0.96800
Zr2089     Zr  0.75515157  0.29352710  0.72735431     1.88900
O2090       O  0.81979987  0.24395365  0.72243307    -0.73500
O2091       O  0.76877430  0.30848449  0.58687992    -0.52700
O2092       O  0.77236161  0.33588910  0.68929555    -0.97400
O2093       O  0.76119454  0.30032314  0.80379607    -0.54600
O2094       O  0.80583687  0.28993856  0.73563454    -0.74000
C2095       C  0.82461959  0.27000250  0.73428456     0.98400
O2096       O  0.81769825  0.18579671  0.67334921    -0.62800
O2097       O  0.68542413  0.18368641  0.78701087    -0.57600
O2098       O  0.77996079  0.17878613  0.73860313    -0.94300
O2099       O  0.74924415  0.18800715  0.79293801    -0.92700
O2100       O  0.68010271  0.15653508  0.68764696    -0.93100
O2101       O  0.72395467  0.15325016  0.62872528    -0.91900
C2102       C  0.76903061  0.17322656  0.77526606     1.17200
H2103       H  0.66403780  0.21511986  0.71986084     0.33100
H2104       H  0.75136929  0.20722312  0.60753714     0.44000
H2105       H  0.77436226  0.24337765  0.77317916     0.37500
H2106       H  0.71976402  0.31508233  0.66408301     0.34000
H2107       H  0.68079214  0.17009026  0.57519500     0.25800
H2108       H  0.76389682  0.31091388  0.55642461     0.31700
H2109       H  0.79116524  0.34036801  0.70210729     0.37600
H2110       H  0.66728898  0.14746016  0.66646549     0.32100
H2111       H  0.69420862  0.16651648  0.77364513     0.31000
H2112       H  0.72027021  0.21886724  0.85697136     0.32700
H2113       H  0.77820876  0.28884164  0.81168537     0.31600
H2114       H  0.74394159  0.15522698  0.63863167     0.35600
H2115       H  0.82924809  0.18467179  0.69974152     0.28400
H2116       H  0.62392524  0.30257232  0.67567364     0.32600
H2117       H  0.75397996  0.34913735  0.76686371     0.35400
H2118       H  0.68885259  0.18108063  0.81784446     0.28000
H2119       H  0.80855614  0.16666742  0.67063994     0.40900
H2120       H  0.72721693  0.23430093  0.53711451     0.31000
H2121       H  0.68250354  0.20298750  0.56439360     0.38600
H2122       H  0.74492016  0.28993440  0.81680539     0.30400
H2123       H  0.76047756  0.32561175  0.60099894     0.30500
H2124       H  0.64353557  0.32314457  0.70260166     0.30800
C2125       C  0.65205663  0.34869904  0.90101218     0.02900
C2126       C  0.66150496  0.34819318  0.94323306    -0.13300
C2127       C  0.66248220  0.37352326  0.46810299     0.00400
C2128       C  0.65495800  0.39968758  0.94793888    -0.11800
C2129       C  0.64760741  0.40059807  0.90465869     0.02900
C2130       C  0.64601768  0.37499161  0.88127853    -0.11200
H2131       H  0.66666443  0.32735951  0.95624905     0.08500
H2132       H  0.65374137  0.41963638  0.96547870     0.06000
H2133       H  0.63796263  0.37531709  0.84894671     0.05800
C2134       C  0.67652633  0.34509633  0.58094592     0.02900
C2135       C  0.67032357  0.34595344  0.53745324    -0.13300
C2136       C  0.66931209  0.37242434  0.51506179     0.00400
C2137       C  0.67551181  0.39782308  0.53825191    -0.11800
C2138       C  0.68014131  0.39707677  0.58237840     0.02900
C2139       C  0.67995910  0.37070674  0.60368146    -0.11200
H2140       H  0.66677849  0.32552409  0.52207625     0.08500
H2141       H  0.67752962  0.41840919  0.52256601     0.06000
H2142       H  0.68552047  0.36990816  0.63716444     0.05800
C2143       C  0.64319414  0.46656530  0.83372912     0.02900
C2144       C  0.61881581  0.98033465  0.85037670    -0.13300
C2145       C  0.60360837  0.46728737  0.88387066     0.00400
C2146       C  0.61377414  0.44158467  0.90178326    -0.11800
C2147       C  0.63803239  0.42799249  0.88562573     0.02900
C2148       C  0.65242969  0.44026045  0.85112151    -0.11200
H2149       H  0.61093504  0.99998778  0.83592467     0.08500
H2150       H  0.60197194  0.43137715  0.92739558     0.06000
H2151       H  0.67113428  0.42957809  0.83824336     0.05800
C2152       C  0.81201012  0.03198667  0.54852492     0.02900
C2153       C  0.80168475  0.05800709  0.03158742    -0.13300
C2154       C  0.81642732  0.07154794  0.99853388     0.00400
C2155       C  0.84176057  0.05946272  0.98328492    -0.11800
C2156       C  0.85245465  0.03379773  0.00034720     0.02900
C2157       C  0.83722044  0.51959889  0.53253240    -0.11200
H2158       H  0.78223325  0.06755346  0.54392219     0.08500
H2159       H  0.85367833  0.07058861  0.95863934     0.06000
H2160       H  0.84567058  0.50004724  0.54660000     0.05800
Zr2161     Zr  0.78168097  0.02211794  0.69273574     2.17500
O2162       O  0.82235335  0.05378044  0.67900023    -0.51600
O2163       O  0.82261924  0.99653120  0.72326355    -0.74800
O2164       O  0.78557982  0.06134915  0.74392963    -0.81600
O2165       O  0.78027299  0.49733030  0.57503436    -0.83300
O2166       O  0.75199714  0.05476397  0.79534481    -0.78900
O2167       O  0.79890841  0.03054389  0.62053230    -0.90600
O2168       O  0.80821515  0.45161415  0.74220416    -0.76500
O2169       O  0.76389377  0.99647045  0.75278111    -0.86000
O2170       O  0.77664450  0.47326229  0.67017275    -0.85700
O2171       O  0.73673612  0.04495649  0.70965858    -0.72500
O2172       O  0.74821037  0.02258802  0.63499493    -0.84600
Zr2173     Zr  0.67951770  0.46937595  0.69138755     2.26400
Zr2174     Zr  0.71891593  0.01837398  0.76960014     2.06300
Zr2175     Zr  0.74238455  0.47356492  0.61373005     2.10000
Zr2176     Zr  0.75791964  0.44792254  0.72970337     1.78800
O2177       O  0.72919742  0.48393706  0.54037936    -0.93400
O2178       O  0.76489490  0.43747185  0.80494918    -0.41200
O2179       O  0.72408879  0.44675418  0.67283727    -0.77900
O2180       O  0.71349556  0.46893855  0.74908770    -0.96500
O2181       O  0.68466017  0.01845413  0.71282819    -0.89900
O2182       O  0.69715434  0.49471250  0.63085215    -0.92700
C2183       C  0.82719118  0.47117527  0.73812157     1.01100
C2184       C  0.79656565  0.01869093  0.58376108     1.14000
C2185       C  0.77329454  0.06819761  0.77896000     1.04800
O2186       O  0.73361627  0.00595750  0.84158254    -0.94800
O2187       O  0.67798400  0.99833179  0.80702196    -0.90600
O2188       O  0.65707622  0.46629958  0.76170345    -0.83700
C2189       C  0.65966593  0.47863252  0.79818228     1.11400
O2190       O  0.72132192  0.08849755  0.62369943    -0.96800
Zr2191     Zr  0.70320265  0.04334915  0.65266854     1.88900
O2192       O  0.63866567  0.49347109  0.65778300    -0.73500
O2193       O  0.68957370  0.05884693  0.79266575    -0.52700
O2194       O  0.68618640  0.08600033  0.69020693    -0.97400
O2195       O  0.69658827  0.04983713  0.57628115    -0.54600
O2196       O  0.65244249  0.03959080  0.64520762    -0.74000
C2197       C  0.63372265  0.01957964  0.64633257     0.98400
O2198       O  0.64153629  0.43501359  0.70743344    -0.62800
O2199       O  0.77333866  0.43357054  0.59358159    -0.57600
O2200       O  0.67868150  0.42861370  0.64176231    -0.94300
O2201       O  0.70941618  0.43784403  0.58746502    -0.92700
O2202       O  0.77862344  0.40672446  0.69299835    -0.93100
O2203       O  0.73488823  0.40358079  0.75255483    -0.91900
C2204       C  0.68962330  0.42305949  0.60512231     1.17200
H2205       H  0.79461005  0.46532588  0.66060438     0.33100
H2206       H  0.70721981  0.45732572  0.77274936     0.44000
H2207       H  0.68422838  0.49303296  0.60704584     0.37500
H2208       H  0.73853319  0.06520419  0.71594064     0.34000
H2209       H  0.77816945  0.42085352  0.80551578     0.25800
H2210       H  0.69457154  0.06159965  0.82301843     0.31700
H2211       H  0.66741584  0.09049311  0.67729752     0.37600
H2212       H  0.79170760  0.39789196  0.71403788     0.32100
H2213       H  0.76423016  0.41630964  0.60619433     0.31000
H2214       H  0.73819265  0.46840879  0.52343061     0.32700
H2215       H  0.67964006  0.03816157  0.56870453     0.31600
H2216       H  0.71584653  0.40402910  0.73884737     0.35600
H2217       H  0.62990777  0.43359151  0.68114823     0.28400
H2218       H  0.83419131  0.05324378  0.70512446     0.32600
H2219       H  0.70434217  0.09887221  0.61277828     0.35400
H2220       H  0.77044205  0.43132365  0.56256535     0.28000
H2221       H  0.65100716  0.41605301  0.71024239     0.40900
H2222       H  0.73174371  0.98473266  0.84304623     0.31000
H2223       H  0.77635183  0.45380660  0.81589471     0.38600
H2224       H  0.71288535  0.03957417  0.56311709     0.30400
H2225       H  0.69777668  0.07584929  0.77810311     0.30500
H2226       H  0.81455901  0.07359936  0.67785474     0.30800
C2227       C  0.78183335  0.09522318  0.79937652     0.02900
C2228       C  0.78813993  0.09601991  0.84283716    -0.13300
C2229       C  0.78929351  0.12246756  0.86526210     0.00400
C2230       C  0.78316465  0.14791277  0.84210940    -0.11800
C2231       C  0.77846849  0.14721275  0.79798710     0.02900
C2232       C  0.77847228  0.12085315  0.77667657    -0.11200
H2233       H  0.79163391  0.07556632  0.85817062     0.08500
H2234       H  0.78124365  0.16849974  0.85781563     0.06000
H2235       H  0.77283936  0.12009178  0.74321753     0.05800
C2236       C  0.80648609  0.09863580  0.97933512     0.02900
C2237       C  0.81246719  0.12492180  0.99912948    -0.13300
C2238       C  0.81096894  0.15052878  0.97574356     0.00400
C2239       C  0.80370748  0.14962870  0.93243064    -0.11800
C2240       C  0.79615348  0.12349367  0.91222568     0.02900
C2241       C  0.79710129  0.09814414  0.93707232    -0.11200
H2242       H  0.82044824  0.12523530  0.53150263     0.08500
H2243       H  0.80499777  0.16957525  0.91490086     0.06000
H2244       H  0.79197485  0.07731426  0.92401387     0.05800
C2245       C  0.56185347  0.21422983  0.58196767     0.02900
C2246       C  0.58708003  0.22659249  0.59797534    -0.13300
C2247       C  0.60240214  0.21228245  0.62997311     0.00400
C2248       C  0.59176474  0.18654539  0.64686655    -0.11800
C2249       C  0.56640151  0.17450293  0.63167901     0.02900
C2250       C  0.55155664  0.18816330  0.59882148    -0.11200
H2251       H  0.59549036  0.24619755  0.58401801     0.08500
H2252       H  0.60372977  0.17534947  0.67139178     0.06000
H2253       H  0.53206777  0.17866051  0.58654736     0.05800
C2254       C  0.89311681  0.27969783  0.79659302     0.02900
C2255       C  0.90238878  0.30601066  0.77926754    -0.13300
C2256       C  0.88800480  0.31834665  0.74480647     0.00400
C2257       C  0.86375242  0.30479269  0.72856684    -0.11800
C2258       C  0.85356709  0.27906933  0.74637308     0.02900
C2259       C  0.86873574  0.26597073  0.77986864    -0.11200
H2260       H  0.92110505  0.31665359  0.79217709     0.08500
H2261       H  0.85197447  0.31504108  0.70296512     0.06000
H2262       H  0.86082266  0.24631002  0.79425861     0.05800
Zr2263     Zr  0.53168114  0.22420911  0.93760562     2.17500
O2264       O  0.57240425  0.19270111  0.95173953    -0.51600
O2265       O  0.57262026  0.24976640  0.90706416    -0.74800
O2266       O  0.53558596  0.18501044  0.88628872    -0.81600
O2267       O  0.53015437  0.24893047  0.55540840    -0.83300
O2268       O  0.50189908  0.19153188  0.83498411    -0.78900
O2269       O  0.54879200  0.21572635  0.50990653    -0.90600
O2270       O  0.55820794  0.29472383  0.88834796    -0.76500
O2271       O  0.51390856  0.24993343  0.87760342    -0.86000
O2272       O  0.52658798  0.27304819  0.96026791    -0.85700
O2273       O  0.98675534  0.20138899  0.92052827    -0.72500
O2274       O  0.99817567  0.22367917  0.49527630    -0.84600
Zr2275     Zr  0.92942400  0.27686363  0.93897233     2.26400
Zr2276     Zr  0.96893413  0.22805753  0.86065772     2.06300
Zr2277     Zr  0.99228716  0.27267292  0.51664801     2.10000
Zr2278     Zr  0.50788566  0.29845268  0.90078355     1.78800
O2279       O  0.97947051  0.26209995  0.59006756    -0.93400
O2280       O  0.51461898  0.30877988  0.82544739    -0.41200
O2281       O  0.97398756  0.29950868  0.95758400    -0.77900
O2282       O  0.96344248  0.27746053  0.88131094    -0.96500
O2283       O  0.93466993  0.22784280  0.91740654    -0.89900
O2284       O  0.94708408  0.25148450  0.99945939    -0.92700
C2285       C  0.57718895  0.27515238  0.89232529     1.01100
C2286       C  0.54642808  0.22755364  0.54670282     1.14000
C2287       C  0.52323618  0.17812293  0.85130740     1.04800
O2288       O  0.98383184  0.24092433  0.78893138    -0.94800
O2289       O  0.92787197  0.24789550  0.82332045    -0.90600
O2290       O  0.90698829  0.27994017  0.86863546    -0.83700
C2291       C  0.90956231  0.26760016  0.83215714     1.11400
O2292       O  0.97136730  0.15751911  0.50566259    -0.96800
Zr2293     Zr  0.95322322  0.20288073  0.97748581     1.88900
O2294       O  0.88866307  0.25256978  0.97256898    -0.73500
O2295       O  0.93954468  0.18777501  0.83702868    -0.52700
O2296       O  0.93596400  0.16049481  0.93954955    -0.97400
O2297       O  0.94673268  0.19628501  0.55388148    -0.54600
O2298       O  0.90251922  0.20648002  0.98520066    -0.74000
C2299       C  0.88377868  0.22646108  0.98409375     0.98400
O2300       O  0.89141414  0.31115902  0.92274622    -0.62800
O2301       O  0.52310170  0.31270921  0.53705027    -0.57600
O2302       O  0.92833918  0.31749889  0.98879620    -0.94300
O2303       O  0.95930323  0.30841545  0.54286810    -0.92700
O2304       O  0.52890571  0.33962599  0.93717418    -0.93100
O2305       O  0.48489777  0.34304067  0.87888802    -0.91900
C2306       C  0.93939310  0.32311612  0.52533963     1.17200
H2307       H  0.54453882  0.28098792  0.96988036     0.33100
H2308       H  0.95713338  0.28908654  0.85767987     0.44000
H2309       H  0.93415800  0.25311540  0.52327338     0.37500
H2310       H  0.98853958  0.18114601  0.91422064     0.34000
H2311       H  0.52810613  0.32521963  0.82473292     0.25800
H2312       H  0.94463313  0.18512545  0.80668923     0.31700
H2313       H  0.91771001  0.15537119  0.95354693     0.37600
H2314       H  0.54198527  0.34835596  0.91603462     0.32100
H2315       H  0.51429381  0.32987934  0.52371657     0.31000
H2316       H  0.98864787  0.27752129  0.60701439     0.32700
H2317       H  0.92979462  0.20794690  0.56155656     0.31600
H2318       H  0.96587029  0.34249430  0.89263663     0.35600
H2319       H  0.87967630  0.31249158  0.94893546     0.28400
H2320       H  0.58445869  0.19348851  0.92585212     0.32600
H2321       H  0.95446643  0.14731365  0.51717824     0.35400
H2322       H  0.51968899  0.31529291  0.56789322     0.28000
H2323       H  0.90084491  0.33015036  0.92011141     0.40900
H2324       H  0.48009271  0.26186793  0.78672870     0.31000
H2325       H  0.52581006  0.29228934  0.81439993     0.38600
H2326       H  0.96304644  0.20653625  0.56701750     0.30400
H2327       H  0.94763636  0.17068813  0.85151227     0.30500
H2328       H  0.56471174  0.17283264  0.95241365     0.30800
C2329       C  0.53174511  0.15107440  0.83089553     0.02900
C2330       C  0.52849059  0.12547210  0.85369001    -0.13300
C2331       C  0.52850959  0.09908551  0.83246004     0.00400
C2332       C  0.53323009  0.09830863  0.78834925    -0.11800
C2333       C  0.53924266  0.12372820  0.76507364     0.02900
C2334       C  0.53794781  0.15021978  0.78739580    -0.11200
H2335       H  0.52289902  0.12626930  0.88716294     0.08500
H2336       H  0.53138570  0.07767695  0.77275629     0.06000
H2337       H  0.54127485  0.17066842  0.77197952     0.05800
C2338       C  0.55647178  0.14741656  0.65092043     0.02900
C2339       C  0.54715222  0.14795641  0.69321172    -0.13300
C2340       C  0.54611390  0.12262932  0.71809868     0.00400
C2341       C  0.55358586  0.09645526  0.69791516    -0.11800
C2342       C  0.56088809  0.09551328  0.65461342     0.02900
C2343       C  0.56242002  0.12110354  0.63117622    -0.11200
H2344       H  0.54213922  0.16881809  0.70624009     0.08500
H2345       H  0.55479306  0.07650521  0.71544335     0.06000
H2346       H  0.57039512  0.12075344  0.59880042     0.05800
C2347       C  0.56535588  0.02946448  0.58382136     0.02900
C2348       C  0.55620237  0.05586875  0.60098667    -0.13300
C2349       C  0.57047021  0.06809033  0.63564433     0.00400
C2350       C  0.59458241  0.05438693  0.65209999    -0.11800
C2351       C  0.60473629  0.02863113  0.63433343     0.02900
C2352       C  0.58957492  0.51558030  0.60079057    -0.11200
H2353       H  0.53762165  0.06663555  0.58786657     0.08500
H2354       H  0.60632029  0.06457389  0.67779332     0.06000
H2355       H  0.59741524  0.49586132  0.58648689     0.05800
C2356       C  0.89652121  0.46430135  0.79862857     0.02900
C2357       C  0.87139068  0.97676207  0.78246314    -0.13300
C2358       C  0.85621988  0.46261496  0.75015513     0.00400
C2359       C  0.86693491  0.43695009  0.73310981    -0.11800
C2360       C  0.89213888  0.42474365  0.74862058     0.02900
C2361       C  0.90678134  0.43820941  0.78183738    -0.11200
H2362       H  0.86294764  0.99633042  0.79648802     0.08500
H2363       H  0.85509669  0.42588646  0.70831993     0.06000
H2364       H  0.92614213  0.42858120  0.79434899     0.05800
Zr2365     Zr  0.92684723  0.47423720  0.94280619     2.17500
O2366       O  0.88626582  0.44256780  0.92864515    -0.51600
O2367       O  0.88593570  0.49993836  0.97311104    -0.74800
O2368       O  0.92282792  0.43502884  0.99405586    -0.81600
O2369       O  0.92827335  0.99897947  0.82511528    -0.83300
O2370       O  0.95644997  0.44153313  0.54544013    -0.78900
O2371       O  0.90964342  0.46576982  0.87062075    -0.90600
O2372       O  0.90052701  0.04465313  0.99280420    -0.76500
O2373       O  0.94469194  0.49983219  0.00286151    -0.86000
O2374       O  0.93197682  0.02311327  0.92035514    -0.85700
O2375       O  0.97172318  0.45130140  0.95970500    -0.72500
O2376       O  0.96024933  0.47371590  0.88501759    -0.84600
Zr2377     Zr  0.52911504  0.02671400  0.94137320     2.26400
Zr2378     Zr  0.98961829  0.47783463  0.51963492     2.06300
Zr2379     Zr  0.96617808  0.02273992  0.86384571     2.10000
Zr2380     Zr  0.95078959  0.04838909  0.97989693     1.78800
O2381       O  0.97948940  0.01270202  0.79043576    -0.93400
O2382       O  0.94401293  0.05880372  0.55520587    -0.41200
O2383       O  0.98458829  0.04947089  0.92295032    -0.77900
O2384       O  0.99518396  0.02726305  0.49915573    -0.96500
O2385       O  0.52382377  0.47765225  0.96277674    -0.89900
O2386       O  0.51135477  0.00145330  0.88087641    -0.92700
C2387       C  0.88147020  0.02520529  0.98835700     1.01100
C2388       C  0.91197419  0.47761778  0.83384858     1.14000
C2389       C  0.93511801  0.42814146  0.52907206     1.04800
O2390       O  0.97474518  0.49058830  0.59142629    -0.94800
O2391       O  0.53072975  0.49757165  0.55696295    -0.90600
O2392       O  0.55141409  0.02986247  0.51180918    -0.83700
C2393       C  0.54893274  0.01739859  0.54821643     1.11400
O2394       O  0.98705418  0.40762154  0.87385349    -0.96800
Zr2395     Zr  0.50518450  0.45281725  0.90261702     1.88900
O2396       O  0.56978954  0.00245910  0.90752029    -0.73500
O2397       O  0.51883448  0.43724941  0.54260683    -0.52700
O2398       O  0.52216101  0.41006465  0.93996876    -0.97400
O2399       O  0.51141933  0.44651201  0.82611751    -0.54600
O2400       O  0.55589032  0.45641364  0.89467408    -0.74000
C2401       C  0.57464778  0.47637672  0.89586757     0.98400
O2402       O  0.56766932  0.06053451  0.95686071    -0.62800
O2403       O  0.93524531  0.06285619  0.84419668    -0.57600
O2404       O  0.52992988  0.06756782  0.89188822    -0.94300
O2405       O  0.49921501  0.05836407  0.83755938    -0.92700
O2406       O  0.93003307  0.08967508  0.94346412    -0.93100
O2407       O  0.97394199  0.09272819  0.50255406    -0.91900
C2408       C  0.51902183  0.07311805  0.85522031     1.17200
H2409       H  0.91402084  0.03109767  0.91083563     0.33100
H2410       H  0.00146904  0.03886163  0.52282617     0.44000
H2411       H  0.52425905  0.00313044  0.85704908     0.37500
H2412       H  0.96987306  0.43106142  0.96600369     0.34000
H2413       H  0.93091354  0.07556193  0.55586577     0.25800
H2414       H  0.51365012  0.43430864  0.57285059     0.31700
H2415       H  0.54133122  0.40609728  0.92802433     0.37600
H2416       H  0.91678054  0.09830049  0.96445767     0.32100
H2417       H  0.94475487  0.08013629  0.85607739     0.31000
H2418       H  0.97065649  0.02839421  0.77362648     0.32700
H2419       H  0.52812433  0.45846886  0.81830464     0.31600
H2420       H  0.99232676  0.09299111  0.48697361     0.35600
H2421       H  0.57913944  0.06177672  0.93040078     0.28400
H2422       H  0.87425537  0.44320496  0.95458771     0.32600
H2423       H  0.50398976  0.39740448  0.86246551     0.35400
H2424       H  0.93757772  0.06478713  0.81302940     0.28000
H2425       H  0.55848462  0.07963005  0.45977056     0.40900
H2426       H  0.97765684  0.51168246  0.59323957     0.31000
H2427       H  0.93240219  0.04257755  0.56614405     0.38600
H2428       H  0.49487063  0.45650657  0.81319874     0.30400
H2429       H  0.51073526  0.42033272  0.52770221     0.30500
H2430       H  0.89406225  0.42274357  0.92777424     0.30800
C2431       C  0.89761787  0.34574082  0.72582963     0.02900
C2432       C  0.90497046  0.34664566  0.68256064    -0.13300
C2433       C  0.91253337  0.37279092  0.66239482     0.00400
C2434       C  0.91157570  0.39812982  0.68725735    -0.14600
C2435       C  0.90207827  0.39763775  0.72946249     0.02900
C2436       C  0.89602323  0.37134885  0.74920291    -0.11200
H2437       H  0.90371230  0.32669903  0.66502697     0.08500
H2438       H  0.91675911  0.41895649  0.67423565     0.06000
H2439       H  0.88794176  0.37102894  0.78152084     0.05800
C2440       C  0.92655268  0.40111372  0.54949606     0.02900
C2441       C  0.92041779  0.40030212  0.59301179    -0.13300
C2442       C  0.91933254  0.37384654  0.61542448     0.00400
C2443       C  0.92541074  0.34841195  0.59223374    -0.11800
C2444       C  0.92994423  0.34911535  0.54808510     0.02900
C2445       C  0.92981049  0.37547816  0.02675976    -0.11200
H2446       H  0.91700076  0.42075183  0.60839428     0.08500
H2447       H  0.92742113  0.32782873  0.60792740     0.06000
H2448       H  0.93531616  0.37624128  0.99325440     0.05800
C2449       C  0.64656809  0.78199901  0.33189902     0.02900
C2450       C  0.65684659  0.80807377  0.34872794    -0.13300
C2451       C  0.64213690  0.82159432  0.38183601     0.00400
C2452       C  0.61689687  0.80942390  0.39726999    -0.11800
C2453       C  0.60621693  0.78372704  0.38028969     0.02900
C2454       C  0.62142793  0.76954630  0.34805201    -0.11200
H2455       H  0.67624571  0.81766711  0.33628855     0.08500
H2456       H  0.60501908  0.82052638  0.42198125     0.06000
H2457       H  0.61300385  0.74996041  0.33405710     0.05800
C2458       C  0.81530583  0.71663442  0.04643553     0.02900
C2459       C  0.83960584  0.73045774  0.02960218    -0.13300
C2460       C  0.85482893  0.71735994  0.49615714     0.00400
C2461       C  0.84473364  0.69156500  0.47845258    -0.11800
C2462       C  0.82055360  0.67792415  0.49477070     0.02900
C2463       C  0.80617012  0.69022443  0.52926364    -0.11200
H2464       H  0.84743554  0.75018180  0.04390274     0.08500
H2465       H  0.85652996  0.68133138  0.45285570     0.06000
H2466       H  0.78752521  0.67950520  0.04226525     0.05800
Zr2467     Zr  0.67672675  0.77191529  0.18755157     2.17500
O2468       O  0.63588460  0.80326450  0.20166389    -0.51600
O2469       O  0.63590718  0.74621658  0.15696992    -0.74800
O2470       O  0.67270598  0.81116996  0.13637077    -0.81600
O2471       O  0.67854261  0.74753028  0.30550290    -0.83300
O2472       O  0.70627624  0.80457649  0.08491764    -0.78900
O2473       O  0.65943282  0.78031130  0.25977020    -0.90600
O2474       O  0.65045346  0.70136231  0.13792314    -0.76500
O2475       O  0.69454048  0.74618543  0.12757230    -0.86000
O2476       O  0.68196891  0.72310469  0.21024531    -0.85700
O2477       O  0.72159077  0.79484617  0.17042404    -0.72500
O2478       O  0.71023590  0.77265224  0.24520538    -0.84600
Zr2479     Zr  0.77909915  0.71955101  0.18890453     2.26400
Zr2480     Zr  0.73942443  0.76819739  0.11055271     2.06300
Zr2481     Zr  0.71627872  0.72369098  0.26662124     2.10000
Zr2482     Zr  0.70074078  0.69769581  0.15078160     1.78800
O2483       O  0.72939628  0.73427044  0.33992791    -0.93400
O2484       O  0.69399705  0.68676753  0.07562100    -0.41200
O2485       O  0.73461962  0.69681683  0.20760436    -0.77900
O2486       O  0.74508880  0.71882640  0.13120489    -0.96500
O2487       O  0.77370559  0.76854858  0.16728951    -0.89900
O2488       O  0.76143351  0.74495473  0.24936301    -0.92700
C2489       C  0.63141986  0.72087514  0.14201876     1.01100
C2490       C  0.66201357  0.76867987  0.29666554     1.14000
C2491       C  0.68498934  0.81802291  0.10132601     1.04800
O2492       O  0.72420994  0.75537806  0.03896006    -0.94800
O2493       O  0.78054912  0.74846534  0.07318200    -0.90600
O2494       O  0.80135606  0.71632886  0.11844279    -0.83700
C2495       C  0.79882801  0.72871746  0.08198897     1.11400
O2496       O  0.73710001  0.83905565  0.25504241    -0.96800
Zr2497     Zr  0.75515151  0.79352700  0.22735435     1.88900
O2498       O  0.81979987  0.74395366  0.22243308    -0.73500
O2499       O  0.76877421  0.80848427  0.08687919    -0.52700
O2500       O  0.77236153  0.83588914  0.18929588    -0.97400
O2501       O  0.76119439  0.80032296  0.30379615    -0.54600
O2502       O  0.80583679  0.78993854  0.23563459    -0.74000
C2503       C  0.82461955  0.77000253  0.23428458     0.98400
O2504       O  0.81769817  0.68579658  0.17334942    -0.62800
O2505       O  0.68542385  0.68368650  0.28701097    -0.57600
O2506       O  0.77996092  0.67878623  0.23860342    -0.94300
O2507       O  0.74924403  0.68800703  0.29293809    -0.92700
O2508       O  0.68010262  0.65653511  0.18764723    -0.93100
O2509       O  0.72395461  0.65325002  0.12872532    -0.91900
C2510       C  0.76903059  0.67322655  0.27526623     1.17200
H2511       H  0.66403719  0.71511950  0.21986110     0.33100
H2512       H  0.75136940  0.70722295  0.10753723     0.44000
H2513       H  0.77436195  0.74337753  0.27317873     0.37500
H2514       H  0.71976402  0.81508157  0.16408322     0.34000
H2515       H  0.68079249  0.67009010  0.07519486     0.25800
H2516       H  0.76389670  0.81091358  0.05642458     0.31700
H2517       H  0.79116542  0.84036776  0.20210717     0.37600
H2518       H  0.66728941  0.64745993  0.16646573     0.32100
H2519       H  0.69420865  0.66651625  0.27364575     0.31000
H2520       H  0.72027064  0.71886701  0.35697131     0.32700
H2521       H  0.77820858  0.78884098  0.31168562     0.31600
H2522       H  0.74394127  0.65522642  0.13863292     0.35600
H2523       H  0.82924813  0.68467160  0.19974219     0.28400
H2524       H  0.62392524  0.80257208  0.17567363     0.32600
H2525       H  0.75397969  0.84913709  0.26686375     0.35400
H2526       H  0.68885187  0.68108107  0.31784441     0.28000
H2527       H  0.80855612  0.66666744  0.17064022     0.40900
H2528       H  0.72721768  0.73430054  0.03711444     0.31000
H2529       H  0.68250340  0.70298755  0.06439360     0.38600
H2530       H  0.74492008  0.78993484  0.31680515     0.30400
H2531       H  0.76047750  0.82561184  0.10099851     0.30500
H2532       H  0.64353561  0.82314479  0.20260131     0.30800
C2533       C  0.65205642  0.84869901  0.40101214     0.02900
C2534       C  0.66150482  0.84819312  0.44323297    -0.13300
C2535       C  0.66248215  0.87352324  0.96810309     0.00400
C2536       C  0.65495819  0.89968754  0.44793873    -0.11800
C2537       C  0.64760748  0.90059804  0.40465858     0.02900
C2538       C  0.64601747  0.87499157  0.38127851    -0.11200
H2539       H  0.66666423  0.82735944  0.45624896     0.08500
H2540       H  0.65374176  0.91963636  0.46547850     0.06000
H2541       H  0.63796227  0.87531706  0.34894678     0.05800
C2542       C  0.67652640  0.84509626  0.08094597     0.02900
C2543       C  0.67032352  0.84595340  0.03745332    -0.13300
C2544       C  0.66931204  0.87242432  0.01506188     0.00400
C2545       C  0.67551180  0.89782304  0.03825197    -0.11800
C2546       C  0.68014141  0.89707671  0.08237842     0.02900
C2547       C  0.67995927  0.87070665  0.10368148    -0.11200
H2548       H  0.66677831  0.82552407  0.02207635     0.08500
H2549       H  0.67752955  0.91840917  0.02256605     0.06000
H2550       H  0.68552067  0.86990805  0.13716445     0.05800
C2551       C  0.64319416  0.96656527  0.33372899     0.02900
C2552       C  0.61881583  0.48033465  0.35037665    -0.13300
C2553       C  0.60360835  0.96728726  0.38387042     0.00400
C2554       C  0.61377412  0.94158455  0.40178304    -0.11800
C2555       C  0.63803246  0.92799246  0.38562563     0.02900
C2556       C  0.65242976  0.94026044  0.35112143    -0.11200
H2557       H  0.61093511  0.49998781  0.33592460     0.08500
H2558       H  0.60197191  0.93137700  0.42739533     0.06000
H2559       H  0.67113438  0.92957813  0.33824323     0.05800
C2560       C  0.81200993  0.53198664  0.04852464     0.02900
C2561       C  0.80168475  0.55800698  0.53158757    -0.13300
C2562       C  0.81642733  0.57154781  0.49853396     0.00400
C2563       C  0.84176063  0.55946260  0.48328514    -0.11800
C2564       C  0.85245471  0.53379765  0.50034754     0.02900
C2565       C  0.83722044  0.01959897  0.03253211    -0.11200
H2566       H  0.78223311  0.56755354  0.04392218     0.08500
H2567       H  0.85367844  0.57058849  0.45863961     0.06000
H2568       H  0.84567061  0.00004732  0.04659972     0.05800
Zr2569     Zr  0.78168096  0.52211795  0.19273561     2.17500
O2570       O  0.82235333  0.55378042  0.17900001    -0.51600
O2571       O  0.82261924  0.49653135  0.22326357    -0.74800
O2572       O  0.78557977  0.56134918  0.24392954    -0.81600
O2573       O  0.78027306  0.99733030  0.07503403    -0.83300
O2574       O  0.75199726  0.55476383  0.29534493    -0.78900
O2575       O  0.79890833  0.53054398  0.12053208    -0.90600
O2576       O  0.80821527  0.95161420  0.24220391    -0.76500
O2577       O  0.76389381  0.49647045  0.25278104    -0.86000
O2578       O  0.77664457  0.97326234  0.17017271    -0.85700
O2579       O  0.73673609  0.54495650  0.20965849    -0.72500
O2580       O  0.74821032  0.52258804  0.13499483    -0.84600
Zr2581     Zr  0.67951782  0.96937601  0.19138744     2.26400
Zr2582     Zr  0.71891597  0.51837398  0.26960014     2.06300
Zr2583     Zr  0.74238469  0.97356497  0.11372990     2.10000
Zr2584     Zr  0.75791969  0.94792257  0.22970335     1.78800
O2585       O  0.72919738  0.98393689  0.04037921    -0.93400
O2586       O  0.76489515  0.93747174  0.30494917    -0.41200
O2587       O  0.72408892  0.94675425  0.17283709    -0.77900
O2588       O  0.71349561  0.96893855  0.24908766    -0.96500
O2589       O  0.68466018  0.51845417  0.21282821    -0.89900
O2590       O  0.69715446  0.99471259  0.13085195    -0.92700
C2591       C  0.82719130  0.97117535  0.23812144     1.01100
C2592       C  0.79656556  0.51869095  0.08376090     1.14000
C2593       C  0.77329455  0.56819756  0.27896003     1.04800
O2594       O  0.73361623  0.50595764  0.34158260    -0.94800
O2595       O  0.67798405  0.49833176  0.30702197    -0.90600
O2596       O  0.65707616  0.96629966  0.26170325    -0.83700
C2597       C  0.65966600  0.97863245  0.29818218     1.11400
O2598       O  0.72132141  0.58849768  0.12369910    -0.96800
Zr2599     Zr  0.70320258  0.54334913  0.15266844     1.88900
O2600       O  0.63866583  0.99347107  0.15778269    -0.73500
O2601       O  0.68957370  0.55884700  0.29266544    -0.52700
O2602       O  0.68618633  0.58600023  0.19020698    -0.97400
O2603       O  0.69658825  0.54983698  0.07628105    -0.54600
O2604       O  0.65244246  0.53959068  0.14520736    -0.74000
C2605       C  0.63372261  0.51957955  0.14633263     0.98400
O2606       O  0.64153668  0.93501347  0.20743378    -0.62800
O2607       O  0.77333900  0.93357071  0.09358157    -0.57600
O2608       O  0.67868153  0.92861376  0.14176217    -0.94300
O2609       O  0.70941636  0.93784394  0.08746499    -0.92700
O2610       O  0.77862339  0.90672437  0.19299849    -0.93100
O2611       O  0.73488821  0.90358087  0.25255490    -0.91900
C2612       C  0.68962341  0.92305945  0.10512227     1.17200
H2613       H  0.79460949  0.96532617  0.16060472     0.33100
H2614       H  0.70721996  0.95732588  0.27274902     0.44000
H2615       H  0.68422920  0.99303317  0.10704698     0.37500
H2616       H  0.73853310  0.56520358  0.21594044     0.34000
H2617       H  0.77816940  0.92085332  0.30551559     0.25800
H2618       H  0.69457142  0.56159973  0.32301825     0.31700
H2619       H  0.66741576  0.59049300  0.17729759     0.37600
H2620       H  0.79170702  0.89789162  0.21403813     0.32100
H2621       H  0.76423045  0.91630954  0.10619464     0.31000
H2622       H  0.73819264  0.96840895  0.02343075     0.32700
H2623       H  0.67963940  0.53816197  0.06870473     0.31600
H2624       H  0.71584688  0.90402847  0.23884555     0.35600
H2625       H  0.62990788  0.93359141  0.18114868     0.28400
H2626       H  0.83419112  0.55324383  0.20512416     0.32600
H2627       H  0.70434176  0.59887209  0.11277820     0.35400
H2628       H  0.77044239  0.93132366  0.06256562     0.28000
H2629       H  0.65100761  0.91605292  0.21024244     0.40900
H2630       H  0.73174433  0.48473245  0.34304596     0.31000
H2631       H  0.77635208  0.95380616  0.31589453     0.38600
H2632       H  0.71288472  0.53957334  0.06311716     0.30400
H2633       H  0.69777668  0.57584924  0.27810295     0.30500
H2634       H  0.81455902  0.57359908  0.17785422     0.30800
C2635       C  0.78183328  0.59522313  0.29937661     0.02900
C2636       C  0.78813996  0.59601986  0.34283722    -0.13300
C2637       C  0.78929359  0.62246751  0.36526214     0.00400
C2638       C  0.78316466  0.64791272  0.34210947    -0.11800
C2639       C  0.77846842  0.64721271  0.29798721     0.02900
C2640       C  0.77847207  0.62085311  0.27667671    -0.11200
H2641       H  0.79163399  0.57556626  0.35817069     0.08500
H2642       H  0.78124370  0.66849967  0.35781574     0.06000
H2643       H  0.77283905  0.62009174  0.24321772     0.05800
C2644       C  0.80648616  0.59863571  0.47933517     0.02900
C2645       C  0.81246734  0.62492171  0.49912949    -0.13300
C2646       C  0.81096907  0.65052869  0.47574358     0.00400
C2647       C  0.80370765  0.64962864  0.43243066    -0.11800
C2648       C  0.79615360  0.62349365  0.41222571     0.02900
C2649       C  0.79710132  0.59814412  0.43707238    -0.11200
H2650       H  0.82044814  0.62523538  0.03150263     0.08500
H2651       H  0.80499800  0.66957518  0.41490087     0.06000
H2652       H  0.79197475  0.57731428  0.42401393     0.05800
C2653       C  0.56185344  0.71422993  0.08196772     0.02900
C2654       C  0.58708007  0.72659244  0.09797523    -0.13300
C2655       C  0.60240215  0.71228230  0.12997294     0.00400
C2656       C  0.59176473  0.68654522  0.14686632    -0.11800
C2657       C  0.56640145  0.67450288  0.13167888     0.02900
C2658       C  0.55155651  0.68816341  0.09882156    -0.11200
H2659       H  0.59549045  0.74619749  0.08401789     0.08500
H2660       H  0.60372978  0.67534924  0.17139146     0.06000
H2661       H  0.53206757  0.67866078  0.08654754     0.05800
C2662       C  0.89311687  0.77969790  0.29659284     0.02900
C2663       C  0.90238886  0.80601070  0.27926733    -0.13300
C2664       C  0.88800477  0.81834675  0.24480642     0.00400
C2665       C  0.86375235  0.80479280  0.22856685    -0.11800
C2666       C  0.85356706  0.77906941  0.24637306     0.02900
C2667       C  0.86873576  0.76597082  0.27986856    -0.11200
H2668       H  0.92110520  0.81665356  0.29217680     0.08500
H2669       H  0.85197437  0.81504119  0.20296519     0.06000
H2670       H  0.86082270  0.74631012  0.29425857     0.05800
Zr2671     Zr  0.53168107  0.72420899  0.43760556     2.17500
O2672       O  0.57240419  0.69270092  0.45173931    -0.51600
O2673       O  0.57262021  0.74976624  0.40706388    -0.74800
O2674       O  0.53558590  0.68501034  0.38628874    -0.81600
O2675       O  0.53015450  0.74893071  0.05540839    -0.83300
O2676       O  0.50189900  0.69153184  0.33498416    -0.78900
O2677       O  0.54879193  0.71572639  0.00990666    -0.90600
O2678       O  0.55820787  0.79472372  0.38834792    -0.76500
O2679       O  0.51390849  0.74993332  0.37760340    -0.86000
O2680       O  0.52658788  0.77304810  0.46026778    -0.85700
O2681       O  0.98675535  0.70138897  0.42052815    -0.72500
O2682       O  0.99817564  0.72367932  0.99527640    -0.84600
Zr2683     Zr  0.92942396  0.77686360  0.43897208     2.26400
Zr2684     Zr  0.96893423  0.72805755  0.36065763     2.06300
Zr2685     Zr  0.99228719  0.77267309  0.01664800     2.10000
Zr2686     Zr  0.50788560  0.79845261  0.40078337     1.78800
O2687       O  0.97947068  0.76210007  0.09006763    -0.93400
O2688       O  0.51461891  0.80877973  0.32544716    -0.41200
O2689       O  0.97398749  0.79950859  0.45758393    -0.77900
O2690       O  0.96344252  0.77746053  0.38131078    -0.96500
O2691       O  0.93466990  0.72784272  0.41740626    -0.89900
O2692       O  0.94708397  0.75148443  0.49945918    -0.92700
C2693       C  0.57718887  0.77515227  0.39232512     1.01100
C2694       C  0.54642809  0.72755377  0.04670289     1.14000
C2695       C  0.52323612  0.67812289  0.35130740     1.04800
O2696       O  0.98383221  0.74092418  0.28893138    -0.94800
O2697       O  0.92787215  0.74789571  0.32332028    -0.90600
O2698       O  0.90698822  0.77994021  0.36863530    -0.83700
C2699       C  0.90956236  0.76760026  0.33215697     1.11400
O2700       O  0.97136706  0.65751926  0.00566319    -0.96800
Zr2701     Zr  0.95322318  0.70288064  0.47748559     1.88900
O2702       O  0.88866298  0.75256984  0.47256869    -0.73500
O2703       O  0.93954483  0.68777511  0.33702826    -0.52700
O2704       O  0.93596379  0.66049475  0.43954935    -0.97400
O2705       O  0.94673274  0.69628528  0.05388176    -0.54600
O2706       O  0.90251916  0.70648008  0.48520039    -0.74000
C2707       C  0.88377861  0.72646114  0.48409347     0.98400
O2708       O  0.89141430  0.81115919  0.42274596    -0.62800
O2709       O  0.52310166  0.81270930  0.03705028    -0.57600
O2710       O  0.92833914  0.81749878  0.48879619    -0.94300
O2711       O  0.95930322  0.80841561  0.04286807    -0.92700
O2712       O  0.52890584  0.83962583  0.43717392    -0.93100
O2713       O  0.48489794  0.84304087  0.37888839    -0.91900
C2714       C  0.93939310  0.82311626  0.02533961     1.17200
H2715       H  0.54453848  0.78098769  0.46988004     0.33100
H2716       H  0.95713338  0.78908676  0.35767924     0.44000
H2717       H  0.93415848  0.75311547  0.02327246     0.37500
H2718       H  0.98853960  0.68114522  0.41422019     0.34000
H2719       H  0.52810617  0.82521939  0.32473265     0.25800
H2720       H  0.94463316  0.68512570  0.30668939     0.31700
H2721       H  0.91770966  0.65537121  0.45354668     0.37600
H2722       H  0.54198573  0.84835565  0.41603436     0.32100
H2723       H  0.51429376  0.82987941  0.02371659     0.31000
H2724       H  0.98864785  0.77752130  0.10701426     0.32700
H2725       H  0.92979460  0.70794663  0.06155667     0.31600
H2726       H  0.96587026  0.84249419  0.39263584     0.35600
H2727       H  0.87967646  0.81249178  0.44893494     0.28400
H2728       H  0.58445852  0.69348814  0.42585161     0.32600
H2729       H  0.95446588  0.64731360  0.01717850     0.35400
H2730       H  0.51968898  0.81529300  0.06789327     0.28000
H2731       H  0.90084535  0.83015081  0.42011125     0.40900
H2732       H  0.48009183  0.76186765  0.28672812     0.31000
H2733       H  0.52580993  0.79228910  0.31439967     0.38600
H2734       H  0.96304655  0.70653723  0.06701795     0.30400
H2735       H  0.94763663  0.67068796  0.35151203     0.30500
H2736       H  0.56471168  0.67283262  0.45241379     0.30800
C2737       C  0.53174507  0.65107438  0.33089546     0.02900
C2738       C  0.52849057  0.62547208  0.35368991    -0.13300
C2739       C  0.52850950  0.59908549  0.33245990     0.00400
C2740       C  0.53323000  0.59830864  0.28834911    -0.11800
C2741       C  0.53924259  0.62372821  0.26507354     0.02900
C2742       C  0.53794773  0.65021980  0.28739572    -0.11200
H2743       H  0.52289905  0.62626925  0.38716284     0.08500
H2744       H  0.53138558  0.57767699  0.27275608     0.06000
H2745       H  0.54127472  0.67066844  0.27197942     0.05800
C2746       C  0.55647172  0.64741651  0.15092033     0.02900
C2747       C  0.54715209  0.64795639  0.19321159    -0.13300
C2748       C  0.54611385  0.62262931  0.21809862     0.00400
C2749       C  0.55358595  0.59645522  0.19791520    -0.11800
C2750       C  0.56088810  0.59551321  0.15461345     0.02900
C2751       C  0.56242008  0.62110345  0.13117621    -0.11200
H2752       H  0.54213901  0.66881809  0.20623993     0.08500
H2753       H  0.55479331  0.57650517  0.21544346     0.06000
H2754       H  0.57039524  0.62075329  0.09880044     0.05800
C2755       C  0.56535592  0.52946444  0.08382136     0.02900
C2756       C  0.55620241  0.55586870  0.10098669    -0.13300
C2757       C  0.57047022  0.56809026  0.13564435     0.00400
C2758       C  0.59458239  0.55438687  0.15210000    -0.11800
C2759       C  0.60473624  0.52863102  0.13433350     0.02900
C2760       C  0.58957499  0.01558020  0.10079048    -0.11200
H2761       H  0.53762172  0.56663550  0.08786661     0.08500
H2762       H  0.60632026  0.56457385  0.17779331     0.06000
H2763       H  0.59741531  0.99586122  0.08648673     0.05800
C2764       C  0.89652128  0.96430132  0.29862856     0.02900
C2765       C  0.87139067  0.47676209  0.28246324    -0.13300
C2766       C  0.85622002  0.96261505  0.25015494     0.00400
C2767       C  0.86693507  0.93695024  0.23310949    -0.11800
C2768       C  0.89213896  0.92474373  0.24862040     0.02900
C2769       C  0.90678139  0.93820938  0.28183736    -0.11200
H2770       H  0.86294766  0.49633045  0.29648819     0.08500
H2771       H  0.85509686  0.92588667  0.20831950     0.06000
H2772       H  0.92614212  0.92858108  0.29434901     0.05800
Zr2773     Zr  0.92684732  0.97423719  0.44280618     2.17500
O2774       O  0.88626589  0.94256776  0.42864536    -0.51600
O2775       O  0.88593586  0.99993840  0.47311109    -0.74800
O2776       O  0.92282808  0.93502886  0.49405583    -0.81600
O2777       O  0.92827325  0.49897949  0.32511535    -0.83300
O2778       O  0.95644989  0.94153321  0.04544011    -0.78900
O2779       O  0.90964347  0.96576976  0.37062078    -0.90600
O2780       O  0.90052715  0.54465298  0.49280480    -0.76500
O2781       O  0.94469203  0.99983216  0.50286155    -0.86000
O2782       O  0.93197680  0.52311327  0.42035530    -0.85700
O2783       O  0.97172323  0.95130132  0.45970496    -0.72500
O2784       O  0.96024943  0.97371591  0.38501762    -0.84600
Zr2785     Zr  0.52911514  0.52671395  0.44137302     2.26400
Zr2786     Zr  0.98961820  0.97783472  0.01963496     2.06300
Zr2787     Zr  0.96617801  0.52273994  0.36384574     2.10000
Zr2788     Zr  0.95078967  0.54838910  0.47989696     1.78800
O2789       O  0.97948932  0.51270212  0.29043576    -0.93400
O2790       O  0.94401254  0.55880364  0.05520582    -0.41200
O2791       O  0.98458833  0.54947088  0.42295029    -0.77900
O2792       O  0.99518379  0.52726311  0.99915586    -0.96500
O2793       O  0.52382393  0.97765224  0.46277666    -0.89900
O2794       O  0.51135479  0.50145329  0.38087628    -0.92700
C2795       C  0.88147030  0.52520517  0.48835745     1.01100
C2796       C  0.91197423  0.97761776  0.33384862     1.14000
C2797       C  0.93511790  0.92814158  0.02907208     1.04800
O2798       O  0.97474492  0.99058819  0.09142633    -0.94800
O2799       O  0.53072967  0.99757169  0.05696299    -0.90600
O2800       O  0.55141405  0.52986251  0.01180923    -0.83700
C2801       C  0.54893271  0.51739860  0.04821646     1.11400
O2802       O  0.98705434  0.90762147  0.37385356    -0.96800
Zr2803     Zr  0.50518459  0.95281722  0.40261696     1.88900
O2804       O  0.56978960  0.50245905  0.40752024    -0.73500
O2805       O  0.51883441  0.93724959  0.04260723    -0.52700
O2806       O  0.52216112  0.91006471  0.43996885    -0.97400
O2807       O  0.51141929  0.94651174  0.32611740    -0.54600
O2808       O  0.55589035  0.95641352  0.39467385    -0.74000
C2809       C  0.57464781  0.97637659  0.39586731     0.98400
O2810       O  0.56766972  0.56053422  0.45686009    -0.62800
O2811       O  0.93524527  0.56285634  0.34419711    -0.57600
O2812       O  0.52992985  0.56756784  0.39188811    -0.94300
O2813       O  0.49921499  0.55836401  0.33755928    -0.92700
O2814       O  0.93003302  0.58967493  0.44346386    -0.93100
O2815       O  0.97394195  0.59272812  0.00255414    -0.91900
C2816       C  0.51902179  0.57311803  0.35522020     1.17200
H2817       H  0.91402074  0.53109775  0.41083594     0.33100
H2818       H  0.00146897  0.53886191  0.02282692     0.44000
H2819       H  0.52425945  0.50313048  0.35704815     0.37500
H2820       H  0.96987307  0.93106114  0.46600367     0.34000
H2821       H  0.93091304  0.57556156  0.05586576     0.25800
H2822       H  0.51364977  0.93430875  0.07285071     0.31700
H2823       H  0.54133146  0.90609717  0.42802406     0.37600
H2824       H  0.91678096  0.59830069  0.46445760     0.32100
H2825       H  0.94475499  0.58013614  0.35607681     0.31000
H2826       H  0.97065546  0.52839355  0.27362641     0.32700
H2827       H  0.52812424  0.95846830  0.31830443     0.31600
H2828       H  0.99232743  0.59299024  0.98697535     0.35600
H2829       H  0.57913953  0.56177650  0.43040006     0.28400
H2830       H  0.87425529  0.94320482  0.45458856     0.32600
H2831       H  0.50398975  0.89740433  0.36246573     0.35400
H2832       H  0.93757716  0.56478691  0.31302925     0.28000
H2833       H  0.55848434  0.57962992  0.95977057     0.40900
H2834       H  0.97765767  0.01168203  0.09324037     0.31000
H2835       H  0.93240168  0.54257704  0.06614414     0.38600
H2836       H  0.49487060  0.95650640  0.31319856     0.30400
H2837       H  0.51073556  0.92033312  0.02770239     0.30500
H2838       H  0.89406225  0.92274352  0.42777439     0.30800
C2839       C  0.89761779  0.84574093  0.22582961     0.02900
C2840       C  0.90497041  0.84664575  0.18256059    -0.13300
C2841       C  0.91253340  0.87279098  0.16239479     0.00400
C2842       C  0.91157578  0.89812986  0.18725731    -0.14600
C2843       C  0.90207828  0.89763782  0.22946243     0.02900
C2844       C  0.89602314  0.87134897  0.24920287    -0.11200
H2845       H  0.90371228  0.82669911  0.16502694     0.08500
H2846       H  0.91675934  0.91895651  0.17423565     0.06000
H2847       H  0.88794165  0.87102913  0.28152083     0.05800
C2848       C  0.92655262  0.90111380  0.04949601     0.02900
C2849       C  0.92041774  0.90030217  0.09301176    -0.13300
C2850       C  0.91933262  0.87384660  0.11542449     0.00400
C2851       C  0.92541089  0.84841205  0.09223379    -0.11800
C2852       C  0.92994427  0.84911547  0.04808509     0.02900
C2853       C  0.92981050  0.87547816  0.52675972    -0.11200
H2854       H  0.91700056  0.92075185  0.10839421     0.08500
H2855       H  0.92742129  0.82782882  0.10792746     0.06000
H2856       H  0.93531613  0.87624130  0.49325437     0.05800
C2857       C  0.64656823  0.78199896  0.83189919     0.02900
C2858       C  0.65684673  0.80807372  0.84872804    -0.13300
C2859       C  0.64213701  0.82159432  0.88183609     0.00400
C2860       C  0.61689699  0.80942389  0.89727014    -0.11800
C2861       C  0.60621707  0.78372701  0.88028995     0.02900
C2862       C  0.62142808  0.76954623  0.84805228    -0.11200
H2863       H  0.67624587  0.81766705  0.83628862     0.08500
H2864       H  0.60501917  0.82052640  0.92198138     0.06000
H2865       H  0.61300397  0.74996035  0.83405740     0.05800
C2866       C  0.81530589  0.71663440  0.54643549     0.02900
C2867       C  0.83960587  0.73045772  0.52960211    -0.13300
C2868       C  0.85482889  0.71736000  0.99615718     0.00400
C2869       C  0.84473358  0.69156510  0.97845258    -0.11800
C2870       C  0.82055352  0.67792420  0.99477075     0.02900
C2871       C  0.80617006  0.69022445  0.02926372    -0.11200
H2872       H  0.84743559  0.75018183  0.54390261     0.08500
H2873       H  0.85652986  0.68133150  0.95285563     0.06000
H2874       H  0.78752529  0.67950523  0.54226516     0.05800
Zr2875     Zr  0.67672683  0.77191545  0.68755170     2.17500
O2876       O  0.63588462  0.80326463  0.70166386    -0.51600
O2877       O  0.63590716  0.74621685  0.65696995    -0.74800
O2878       O  0.67270628  0.81117017  0.63637094    -0.81600
O2879       O  0.67854250  0.74753013  0.80550269    -0.83300
O2880       O  0.70627616  0.80457640  0.58491733    -0.78900
O2881       O  0.65943299  0.78031156  0.75977037    -0.90600
O2882       O  0.65045333  0.70136249  0.63792348    -0.76500
O2883       O  0.69454057  0.74618560  0.62757247    -0.86000
O2884       O  0.68196892  0.72310476  0.71024537    -0.85700
O2885       O  0.72159087  0.79484627  0.67042405    -0.72500
O2886       O  0.71023605  0.77265233  0.74520545    -0.84600
Zr2887     Zr  0.77909912  0.71955098  0.68890448     2.26400
Zr2888     Zr  0.73942452  0.76819750  0.61055271     2.06300
Zr2889     Zr  0.71627883  0.72369102  0.76662123     2.10000
Zr2890     Zr  0.70074069  0.69769589  0.65078152     1.78800
O2891       O  0.72939622  0.73427059  0.83992787    -0.93400
O2892       O  0.69399639  0.68676751  0.57562107    -0.41200
O2893       O  0.73461954  0.69681686  0.70760429    -0.77900
O2894       O  0.74508874  0.71882647  0.63120482    -0.96500
O2895       O  0.77370570  0.76854859  0.66728949    -0.89900
O2896       O  0.76143358  0.74495479  0.74936291    -0.92700
C2897       C  0.63141976  0.72087537  0.64201899     1.01100
C2898       C  0.66201362  0.76867988  0.79666556     1.14000
C2899       C  0.68498943  0.81802298  0.60132596     1.04800
O2900       O  0.72421047  0.75537867  0.53895971    -0.94800
O2901       O  0.78054910  0.74846523  0.57318196    -0.90600
O2902       O  0.80135602  0.71632875  0.61844275    -0.83700
C2903       C  0.79882801  0.72871736  0.58198894     1.11400
O2904       O  0.73710015  0.83905567  0.75504265    -0.96800
Zr2905     Zr  0.75515166  0.79352707  0.72735431     1.88900
O2906       O  0.81979989  0.74395357  0.72243307    -0.73500
O2907       O  0.76877436  0.80848458  0.58688015    -0.52700
O2908       O  0.77236163  0.83588917  0.68929562    -0.97400
O2909       O  0.76119474  0.80032292  0.80379607    -0.54600
O2910       O  0.80583697  0.78993853  0.73563428    -0.74000
C2911       C  0.82461967  0.77000246  0.73428440     0.98400
O2912       O  0.81769827  0.68579667  0.67334946    -0.62800
O2913       O  0.68542421  0.68368627  0.78701080    -0.57600
O2914       O  0.77996078  0.67878606  0.73860311    -0.94300
O2915       O  0.74924437  0.68800732  0.79293820    -0.92700
O2916       O  0.68010259  0.65653505  0.68764696    -0.93100
O2917       O  0.72395457  0.65325016  0.62872501    -0.91900
C2918       C  0.76903068  0.67322658  0.77526611     1.17200
H2919       H  0.66403785  0.71511985  0.71986089     0.33100
H2920       H  0.75136930  0.70722302  0.60753716     0.44000
H2921       H  0.77436234  0.74337757  0.77317912     0.37500
H2922       H  0.71976419  0.81508167  0.66408320     0.34000
H2923       H  0.68079134  0.67009003  0.57519519     0.25800
H2924       H  0.76389719  0.81091388  0.55642517     0.31700
H2925       H  0.79116539  0.84036806  0.70210724     0.37600
H2926       H  0.66728920  0.64745983  0.66646521     0.32100
H2927       H  0.69420904  0.66651608  0.77364548     0.31000
H2928       H  0.72026974  0.71886740  0.85697158     0.32700
H2929       H  0.77820915  0.78884106  0.81168540     0.31600
H2930       H  0.74394093  0.65522635  0.63863298     0.35600
H2931       H  0.82924810  0.68467167  0.69974217     0.28400
H2932       H  0.62392536  0.80257240  0.67567305     0.32600
H2933       H  0.75398001  0.84913727  0.76686369     0.35400
H2934       H  0.68885237  0.68108065  0.81784465     0.28000
H2935       H  0.80855627  0.66666747  0.67064004     0.40900
H2936       H  0.72721665  0.73430046  0.53711472     0.31000
H2937       H  0.68250295  0.70298756  0.56439370     0.38600
H2938       H  0.74492049  0.78993441  0.81680531     0.30400
H2939       H  0.76047735  0.82561205  0.60099915     0.30500
H2940       H  0.64353554  0.82314459  0.70260168     0.30800
C2941       C  0.65205654  0.84869903  0.90101220     0.02900
C2942       C  0.66150480  0.84819314  0.94323311    -0.13300
C2943       C  0.66248226  0.87352323  0.46810294     0.00400
C2944       C  0.65495803  0.89968754  0.94793891    -0.11800
C2945       C  0.64760747  0.90059806  0.90465871     0.02900
C2946       C  0.64601771  0.87499161  0.88127852    -0.11200
H2947       H  0.66666424  0.82735947  0.95624912     0.08500
H2948       H  0.65374146  0.91963636  0.96547873     0.06000
H2949       H  0.63796270  0.87531714  0.84894668     0.05800
C2950       C  0.67652642  0.84509631  0.58094588     0.02900
C2951       C  0.67032363  0.84595340  0.53745320    -0.13300
C2952       C  0.66931215  0.87242431  0.51506174     0.00400
C2953       C  0.67551188  0.89782304  0.53825184    -0.11800
C2954       C  0.68014139  0.89707675  0.58237832     0.02900
C2955       C  0.67995917  0.87070673  0.60368140    -0.11200
H2956       H  0.66677856  0.82552404  0.52207623     0.08500
H2957       H  0.67752969  0.91840914  0.52256590     0.06000
H2958       H  0.68552053  0.86990815  0.63716438     0.05800
C2959       C  0.64319407  0.96656520  0.83372901     0.02900
C2960       C  0.61881592  0.48033478  0.85037686    -0.13300
C2961       C  0.60360831  0.96728725  0.88387056     0.00400
C2962       C  0.61377411  0.94158457  0.90178322    -0.11800
C2963       C  0.63803241  0.92799246  0.88562577     0.02900
C2964       C  0.65242970  0.94026042  0.85112154    -0.11200
H2965       H  0.61093525  0.49998794  0.83592486     0.08500
H2966       H  0.60197189  0.93137705  0.92739552     0.06000
H2967       H  0.67113432  0.92957809  0.83824344     0.05800
C2968       C  0.81201001  0.53198665  0.54852491     0.02900
C2969       C  0.80168470  0.55800706  0.03158746    -0.13300
C2970       C  0.81642727  0.57154791  0.99853387     0.00400
C2971       C  0.84176051  0.55946267  0.98328489    -0.11800
C2972       C  0.85245458  0.53379767  0.00034718     0.02900
C2973       C  0.83722055  0.01959893  0.53253239    -0.11200
H2974       H  0.78223312  0.56755342  0.54392215     0.08500
H2975       H  0.85367828  0.57058855  0.95863930     0.06000
H2976       H  0.84567071  0.00004731  0.54660001     0.05800
Zr2977     Zr  0.78168093  0.52211796  0.69273571     2.17500
O2978       O  0.82235332  0.55378040  0.67900023    -0.51600
O2979       O  0.82261921  0.49653124  0.72326356    -0.74800
O2980       O  0.78557976  0.56134923  0.74392950    -0.81600
O2981       O  0.78027308  0.99733028  0.57503423    -0.83300
O2982       O  0.75199710  0.55476407  0.79534473    -0.78900
O2983       O  0.79890830  0.53054402  0.62053228    -0.90600
O2984       O  0.80821516  0.95161411  0.74220412    -0.76500
O2985       O  0.76389374  0.49647051  0.75278111    -0.86000
O2986       O  0.77664446  0.97326229  0.67017273    -0.85700
O2987       O  0.73673605  0.54495645  0.70965844    -0.72500
O2988       O  0.74821029  0.52258794  0.63499495    -0.84600
Zr2989     Zr  0.67951773  0.96937603  0.69138741     2.26400
Zr2990     Zr  0.71891591  0.51837407  0.76960014     2.06300
Zr2991     Zr  0.74238459  0.97356502  0.61372992     2.10000
Zr2992     Zr  0.75791960  0.94792250  0.72970334     1.78800
O2993       O  0.72919705  0.98393724  0.54037947    -0.93400
O2994       O  0.76489495  0.93747169  0.80494914    -0.41200
O2995       O  0.72408883  0.94675429  0.67283708    -0.77900
O2996       O  0.71349552  0.96893847  0.74908766    -0.96500
O2997       O  0.68466020  0.51845408  0.71282814    -0.89900
O2998       O  0.69715439  0.99471260  0.63085202    -0.92700
C2999       C  0.82719120  0.97117523  0.73812156     1.01100
C3000       C  0.79656555  0.51869098  0.58376113     1.14000
C3001       C  0.77329451  0.56819767  0.77895994     1.04800
O3002       O  0.73361634  0.50595750  0.84158249    -0.94800
O3003       O  0.67798393  0.49833203  0.80702196    -0.90600
O3004       O  0.65707611  0.96629959  0.76170324    -0.83700
C3005       C  0.65966590  0.97863241  0.79818218     1.11400
O3006       O  0.72132158  0.58849758  0.62369936    -0.96800
Zr3007     Zr  0.70320256  0.54334908  0.65266839     1.88900
O3008       O  0.63866576  0.99347112  0.65778272    -0.73500
O3009       O  0.68957361  0.55884704  0.79266572    -0.52700
O3010       O  0.68618623  0.58600024  0.69020685    -0.97400
O3011       O  0.69658830  0.54983688  0.57628090    -0.54600
O3012       O  0.65244246  0.53959068  0.64520733    -0.74000
C3013       C  0.63372259  0.51957957  0.64633258     0.98400
O3014       O  0.64153638  0.93501368  0.70743342    -0.62800
O3015       O  0.77333876  0.93357077  0.59358132    -0.57600
O3016       O  0.67868149  0.92861379  0.64176211    -0.94300
O3017       O  0.70941632  0.93784399  0.58746494    -0.92700
O3018       O  0.77862331  0.90672439  0.69299835    -0.93100
O3019       O  0.73488830  0.90358072  0.75255486    -0.91900
C3020       C  0.68962338  0.92305949  0.60512220     1.17200
H3021       H  0.79460964  0.96532597  0.66060457     0.33100
H3022       H  0.70721983  0.95732576  0.77274897     0.44000
H3023       H  0.68422871  0.99303309  0.60704624     0.37500
H3024       H  0.73853312  0.56520432  0.71594058     0.34000
H3025       H  0.77816968  0.92085303  0.80551561     0.25800
H3026       H  0.69457139  0.56159980  0.82301842     0.31700
H3027       H  0.66741585  0.59049310  0.67729742     0.37600
H3028       H  0.79170696  0.89789159  0.71403810     0.32100
H3029       H  0.76423033  0.91630972  0.60619440     0.31000
H3030       H  0.73819247  0.96840924  0.52343066     0.32700
H3031       H  0.67964004  0.53816157  0.56870433     0.31600
H3032       H  0.71584658  0.90402883  0.73884689     0.35600
H3033       H  0.62990778  0.93359157  0.68114809     0.28400
H3034       H  0.83419111  0.55324380  0.70512417     0.32600
H3035       H  0.70434188  0.59887201  0.61277808     0.35400
H3036       H  0.77044188  0.93132366  0.56256488     0.28000
H3037       H  0.65100712  0.91605341  0.71024241     0.40900
H3038       H  0.73174361  0.48473253  0.84304620     0.31000
H3039       H  0.77635175  0.95380607  0.81589456     0.38600
H3040       H  0.71288545  0.53957349  0.56311679     0.30400
H3041       H  0.69777653  0.57584943  0.77810309     0.30500
H3042       H  0.81455885  0.57359949  0.67785465     0.30800
C3043       C  0.78183333  0.59522319  0.79937654     0.02900
C3044       C  0.78813988  0.59601992  0.84283721    -0.13300
C3045       C  0.78929354  0.62246758  0.86526211     0.00400
C3046       C  0.78316470  0.64791279  0.84210938    -0.11800
C3047       C  0.77846845  0.64721275  0.79798712     0.02900
C3048       C  0.77847219  0.62085315  0.77667661    -0.11200
H3049       H  0.79163382  0.57556630  0.85817069     0.08500
H3050       H  0.78124383  0.66849979  0.85781556     0.06000
H3051       H  0.77283927  0.62009175  0.74321757     0.05800
C3052       C  0.80648611  0.59863581  0.97933511     0.02900
C3053       C  0.81246722  0.62492179  0.99912947    -0.13300
C3054       C  0.81096900  0.65052878  0.97574356     0.00400
C3055       C  0.80370753  0.64962875  0.93243066    -0.11800
C3056       C  0.79615355  0.62349374  0.91222567     0.02900
C3057       C  0.79710136  0.59814420  0.93707229    -0.11200
H3058       H  0.82044831  0.62523530  0.53150262     0.08500
H3059       H  0.80499780  0.66957532  0.91490091     0.06000
H3060       H  0.79197491  0.57731435  0.92401382     0.05800
C3061       C  0.56185340  0.71422990  0.58196770     0.02900
C3062       C  0.58707995  0.72659254  0.59797536    -0.13300
C3063       C  0.60240202  0.71228250  0.62997319     0.00400
C3064       C  0.59176459  0.68654543  0.64686665    -0.11800
C3065       C  0.56640140  0.67450297  0.63167905     0.02900
C3066       C  0.55155656  0.68816333  0.59882150    -0.11200
H3067       H  0.59549029  0.74619761  0.58401803     0.08500
H3068       H  0.60372958  0.67534951  0.67139192     0.06000
H3069       H  0.53206772  0.67866053  0.58654733     0.05800
C3070       C  0.89311684  0.77969791  0.79659301     0.02900
C3071       C  0.90238881  0.80601073  0.77926757    -0.13300
C3072       C  0.88800486  0.81834669  0.74480640     0.00400
C3073       C  0.86375253  0.80479268  0.72856663    -0.11800
C3074       C  0.85356721  0.77906931  0.74637284     0.02900
C3075       C  0.86873585  0.76597074  0.77986847    -0.11200
H3076       H  0.92110504  0.81665369  0.79217724     0.08500
H3077       H  0.85197459  0.81504106  0.70296485     0.06000
H3078       H  0.86082277  0.74631002  0.79425840     0.05800
Zr3079     Zr  0.53168111  0.72420907  0.93760575     2.17500
O3080       O  0.57240431  0.69270112  0.95173958    -0.51600
O3081       O  0.57262022  0.74976634  0.90706417    -0.74800
O3082       O  0.53558593  0.68501049  0.88628874    -0.81600
O3083       O  0.53015426  0.74893051  0.55540843    -0.83300
O3084       O  0.50189902  0.69153197  0.83498416    -0.78900
O3085       O  0.54879201  0.71572647  0.50990653    -0.90600
O3086       O  0.55820799  0.79472380  0.88834796    -0.76500
O3087       O  0.51390854  0.74993337  0.87760360    -0.86000
O3088       O  0.52658791  0.77304816  0.96026796    -0.85700
O3089       O  0.98675530  0.70138906  0.92052832    -0.72500
O3090       O  0.99817564  0.72367919  0.49527630    -0.84600
Zr3091     Zr  0.92942401  0.77686365  0.93897231     2.26400
Zr3092     Zr  0.96893417  0.72805756  0.86065772     2.06300
Zr3093     Zr  0.99228713  0.77267296  0.51664799     2.10000
Zr3094     Zr  0.50788571  0.79845264  0.90078354     1.78800
O3095       O  0.97947037  0.76209992  0.59006753    -0.93400
O3096       O  0.51461904  0.80877992  0.82544739    -0.41200
O3097       O  0.97398755  0.79950870  0.95758396    -0.77900
O3098       O  0.96344251  0.77746056  0.88131090    -0.96500
O3099       O  0.93466997  0.72784282  0.91740651    -0.89900
O3100       O  0.94708402  0.75148453  0.99945945    -0.92700
C3101       C  0.57718896  0.77515232  0.89232529     1.01100
C3102       C  0.54642802  0.72755370  0.54670285     1.14000
C3103       C  0.52323614  0.67812303  0.85130740     1.04800
O3104       O  0.98383211  0.74092425  0.78893140    -0.94800
O3105       O  0.92787200  0.74789561  0.82332046    -0.90600
O3106       O  0.90698831  0.77994028  0.86863546    -0.83700
C3107       C  0.90956232  0.76760025  0.83215714     1.11400
O3108       O  0.97136733  0.65751919  0.50566282    -0.96800
Zr3109     Zr  0.95322319  0.70288076  0.97748585     1.88900
O3110       O  0.88866302  0.75256992  0.97256895    -0.73500
O3111       O  0.93954474  0.68777506  0.83702866    -0.52700
O3112       O  0.93596389  0.66049501  0.93954929    -0.97400
O3113       O  0.94673264  0.69628511  0.55388144    -0.54600
O3114       O  0.90251915  0.70648015  0.98520058    -0.74000
C3115       C  0.88377861  0.72646121  0.98409362     0.98400
O3116       O  0.89141424  0.81115907  0.92274620    -0.62800
O3117       O  0.52310176  0.81270909  0.53705025    -0.57600
O3118       O  0.92833932  0.81749896  0.98879617    -0.94300
O3119       O  0.95930328  0.80841564  0.54286788    -0.92700
O3120       O  0.52890562  0.83962600  0.93717417    -0.93100
O3121       O  0.48489780  0.84304063  0.87888802    -0.91900
C3122       C  0.93939305  0.82311621  0.52533950     1.17200
H3123       H  0.54453872  0.78098789  0.96988042     0.33100
H3124       H  0.95713356  0.78908632  0.85768032     0.44000
H3125       H  0.93415824  0.75311539  0.52327237     0.37500
H3126       H  0.98853955  0.68114538  0.91422043     0.34000
H3127       H  0.52810649  0.82521996  0.82473300     0.25800
H3128       H  0.94463318  0.68512543  0.80668940     0.31700
H3129       H  0.91771001  0.65537116  0.95354700     0.37600
H3130       H  0.54198516  0.84835581  0.91603492     0.32100
H3131       H  0.51429380  0.82987940  0.52371668     0.31000
H3132       H  0.98864744  0.77752133  0.60701433     0.32700
H3133       H  0.92979482  0.70794698  0.56155655     0.31600
H3134       H  0.96587000  0.84249422  0.89263690     0.35600
H3135       H  0.87967640  0.81249176  0.94893556     0.28400
H3136       H  0.58445878  0.69348859  0.92585180     0.32600
H3137       H  0.95446638  0.64731354  0.51717836     0.35400
H3138       H  0.51968920  0.81529273  0.56789325     0.28000
H3139       H  0.90084515  0.83015062  0.92011130     0.40900
H3140       H  0.48009229  0.76186803  0.78672856     0.31000
H3141       H  0.52580986  0.79228970  0.81440001     0.38600
H3142       H  0.96304682  0.70653656  0.56701768     0.30400
H3143       H  0.94763653  0.67068795  0.85151250     0.30500
H3144       H  0.56471199  0.67283311  0.95241375     0.30800
C3145       C  0.53174511  0.65107450  0.83089550     0.02900
C3146       C  0.52849065  0.62547221  0.85368999    -0.13300
C3147       C  0.52850957  0.59908560  0.83246003     0.00400
C3148       C  0.53323012  0.59830872  0.78834925    -0.11800
C3149       C  0.53924273  0.62372827  0.76507365     0.02900
C3150       C  0.53794784  0.65021989  0.78739578    -0.11200
H3151       H  0.52289907  0.62626941  0.88716291     0.08500
H3152       H  0.53138566  0.57767705  0.77275626     0.06000
H3153       H  0.54127483  0.67066854  0.77197952     0.05800
C3154       C  0.55647170  0.64741658  0.65092045     0.02900
C3155       C  0.54715221  0.64795642  0.69321175    -0.13300
C3156       C  0.54611396  0.62262934  0.71809872     0.00400
C3157       C  0.55358593  0.59645525  0.69791520    -0.11800
C3158       C  0.56088813  0.59551330  0.65461345     0.02900
C3159       C  0.56242002  0.62110355  0.63117625    -0.11200
H3160       H  0.54213918  0.66881811  0.70624014     0.08500
H3161       H  0.55479316  0.57650517  0.71544338     0.06000
H3162       H  0.57039511  0.62075344  0.59880044     0.05800
C3163       C  0.56535588  0.52946453  0.58382134     0.02900
C3164       C  0.55620240  0.55586880  0.60098668    -0.13300
C3165       C  0.57047026  0.56809037  0.63564429     0.00400
C3166       C  0.59458244  0.55438696  0.65209990    -0.11800
C3167       C  0.60473625  0.52863110  0.63433341     0.02900
C3168       C  0.58957495  0.01558028  0.60079059    -0.11200
H3169       H  0.53762170  0.56663562  0.58786666     0.08500
H3170       H  0.60632034  0.56457390  0.67779320     0.06000
H3171       H  0.59741527  0.99586132  0.58648689     0.05800
C3172       C  0.89652127  0.96430139  0.79862853     0.02900
C3173       C  0.87139063  0.47676205  0.78246317    -0.13300
C3174       C  0.85621992  0.96261494  0.75015513     0.00400
C3175       C  0.86693496  0.93695008  0.73310983    -0.11800
C3176       C  0.89213896  0.92474368  0.74862056     0.02900
C3177       C  0.90678144  0.93820946  0.78183733    -0.11200
H3178       H  0.86294761  0.49633043  0.79648803     0.08500
H3179       H  0.85509675  0.92588641  0.70831998     0.06000
H3180       H  0.92614225  0.92858127  0.79434889     0.05800
Zr3181     Zr  0.92684723  0.97423727  0.94280613     2.17500
O3182       O  0.88626575  0.94256789  0.92864518    -0.51600
O3183       O  0.88593576  0.99993846  0.97311101    -0.74800
O3184       O  0.92282787  0.93502894  0.99405584    -0.81600
O3185       O  0.92827331  0.49897944  0.82511521    -0.83300
O3186       O  0.95645008  0.94153311  0.54544012    -0.78900
O3187       O  0.90964338  0.96576985  0.87062075    -0.90600
O3188       O  0.90052695  0.54465305  0.99280417    -0.76500
O3189       O  0.94469191  0.99983225  0.00286154    -0.86000
O3190       O  0.93197671  0.52311320  0.92035525    -0.85700
O3191       O  0.97172313  0.95130139  0.95970499    -0.72500
O3192       O  0.96024937  0.97371591  0.88501756    -0.84600
Zr3193     Zr  0.52911505  0.52671408  0.94137321     2.26400
Zr3194     Zr  0.98961833  0.97783465  0.51963488     2.06300
Zr3195     Zr  0.96617799  0.52273991  0.86384572     2.10000
Zr3196     Zr  0.95078955  0.54838905  0.97989696     1.78800
O3197       O  0.97948923  0.51270179  0.79043578    -0.93400
O3198       O  0.94401307  0.55880388  0.55520584    -0.41200
O3199       O  0.98458821  0.54947090  0.92295029    -0.77900
O3200       O  0.99518390  0.52726303  0.49915573    -0.96500
O3201       O  0.52382381  0.97765216  0.96277675    -0.89900
O3202       O  0.51135479  0.50145339  0.88087641    -0.92700
C3203       C  0.88147013  0.52520521  0.98835700     1.01100
C3204       C  0.91197421  0.97761782  0.83384861     1.14000
C3205       C  0.93511807  0.92814151  0.52907209     1.04800
O3206       O  0.97474524  0.99058802  0.59142633    -0.94800
O3207       O  0.53072968  0.99757165  0.55696308    -0.90600
O3208       O  0.55141408  0.52986257  0.51180913    -0.83700
C3209       C  0.54893274  0.51739866  0.54821636     1.11400
O3210       O  0.98705418  0.90762147  0.87385380    -0.96800
Zr3211     Zr  0.50518450  0.95281717  0.90261704     1.88900
O3212       O  0.56978964  0.50245933  0.90752033    -0.73500
O3213       O  0.51883474  0.93724947  0.54260644    -0.52700
O3214       O  0.52216109  0.91006475  0.93996912    -0.97400
O3215       O  0.51141935  0.94651178  0.82611753    -0.54600
O3216       O  0.55589028  0.95641343  0.89467378    -0.74000
C3217       C  0.57464771  0.97637652  0.89586740     0.98400
O3218       O  0.56766919  0.56053472  0.95686084    -0.62800
O3219       O  0.93524532  0.56285622  0.84419665    -0.57600
O3220       O  0.52992973  0.56756795  0.89188826    -0.94300
O3221       O  0.49921493  0.55836413  0.83755936    -0.92700
O3222       O  0.93003310  0.58967504  0.94346393    -0.93100
O3223       O  0.97394210  0.59272824  0.50255380    -0.91900
C3224       C  0.51902173  0.57311815  0.85522031     1.17200
H3225       H  0.91402091  0.53109752  0.91083599     0.33100
H3226       H  0.00146895  0.53886159  0.52282618     0.44000
H3227       H  0.52425908  0.50313058  0.85704908     0.37500
H3228       H  0.96987295  0.93106139  0.96600365     0.34000
H3229       H  0.93091357  0.57556219  0.55586579     0.25800
H3230       H  0.51365053  0.93430878  0.57285069     0.31700
H3231       H  0.54133141  0.90609758  0.92802515     0.37600
H3232       H  0.91678057  0.59830017  0.96445679     0.32100
H3233       H  0.94475481  0.58013617  0.85607746     0.31000
H3234       H  0.97065663  0.52839403  0.77362653     0.32700
H3235       H  0.52812449  0.95846856  0.81830462     0.31600
H3236       H  0.99232710  0.59299080  0.48697382     0.35600
H3237       H  0.57913940  0.56177708  0.93040047     0.28400
H3238       H  0.87425536  0.94320499  0.95458756     0.32600
H3239       H  0.50398959  0.89740437  0.86246583     0.35400
H3240       H  0.93757784  0.56478717  0.81302938     0.28000
H3241       H  0.55848492  0.57962961  0.45977021     0.40900
H3242       H  0.97765702  0.01168229  0.59323981     0.31000
H3243       H  0.93240223  0.54257766  0.56614415     0.38600
H3244       H  0.49487085  0.95650632  0.81319880     0.30400
H3245       H  0.51073563  0.92033311  0.52770237     0.30500
H3246       H  0.89406228  0.92274333  0.92777422     0.30800
C3247       C  0.89761794  0.84574085  0.72582959     0.02900
C3248       C  0.90497050  0.84664568  0.68256058    -0.13300
C3249       C  0.91253343  0.87279093  0.66239479     0.00400
C3250       C  0.91157573  0.89812984  0.68725732    -0.14600
C3251       C  0.90207835  0.89763778  0.72946247     0.02900
C3252       C  0.89602332  0.87134890  0.74920290    -0.11200
H3253       H  0.90371232  0.82669904  0.66502689     0.08500
H3254       H  0.91675908  0.91895652  0.67423562     0.06000
H3255       H  0.88794187  0.87102905  0.78152085     0.05800
C3256       C  0.92655269  0.90111377  0.54949602     0.02900
C3257       C  0.92041789  0.90030215  0.59301178    -0.13300
C3258       C  0.91933260  0.87384657  0.61542445     0.00400
C3259       C  0.92541077  0.84841201  0.59223367    -0.11800
C3260       C  0.92994421  0.84911543  0.54808499     0.02900
C3261       C  0.92981056  0.87547818  0.02675977    -0.11200
H3262       H  0.91700095  0.92075185  0.60839427     0.08500
H3263       H  0.92742112  0.82782877  0.60792728     0.06000
H3264       H  0.93531625  0.87624127  0.99325441     0.05800
loop_ 
_geom_bond_atom_site_label_1 
_geom_bond_atom_site_label_2 
_geom_bond_distance 
_geom_bond_site_symmetry_2 
_ccdc_geom_bond_type 
C1            C2   1.405       .  A
C1            C6   1.406       .  A
C1           C42   1.460       .  S
C2            C3   1.397       .  A
C2            H7   1.084       .  S
C3            C4   1.396       .  A
C3           C85   1.470       .  S
C4            C5   1.399       .  A
C4            H8   1.085       .  S
C5            C6   1.403       .  A
C5          C245   1.466       .  S
C6            H9   1.084       .  S
C10          C11   1.409       .  A
C10         C423   1.406       .  A
C10          C47   1.469       .  S
C11         C420   1.408   1_554  A
C11          H16   1.083       .  S
C12          C13   1.402       .  A
C12         C419   1.408       .  A
C12         C259   1.469       .  S
C13          C14   1.395       .  A
C13          H17   1.085       .  S
C14          C15   1.398       .  A
C14         C198   1.475       .  S
C15         C418   1.406       .  A
C15         H426   1.084       .  S
H18         C423   1.084       .  S
Zr19         O20   2.443       .  S
Zr19         O21   2.449       .  S
Zr19         O22   2.437       .  S
Zr19         O25   2.442       .  S
Zr19         O27   2.382       .  S
Zr19         O28   2.387       .  S
Zr19         O29   2.415       .  S
Zr19         O30   2.397       .  S
O20          H76   0.991       .  S
O20          H84   0.990       .  S
O21          C41   1.284       .  A
O22          C43   1.283       .  A
O23         Zr33   2.416       .  S
O23          C42   1.280       .  A
O24         Zr32   2.430       .  S
O24          C43   1.284       .  A
O25          C42   1.285       .  A
O26         Zr34   2.394       .  S
O26          C41   1.277       .  A
O27         Zr32   2.397       .  S
O27         Zr34   2.383       .  S
O28         Zr33   2.392       .  S
O28         Zr34   2.378       .  S
O28          H63   0.966       .  S
O29         Zr32   2.402       .  S
O29         Zr49   2.382       .  S
O29          H66   0.964       .  S
O30         Zr33   2.386       .  S
O30         Zr49   2.382       .  S
Zr31         O56   2.441       .  S
Zr31         O50   2.454       .  S
Zr31         O58   2.454       .  S
Zr31         O46   2.453       .  S
Zr31         O37   2.407       .  S
Zr31         O38   2.414       .  S
Zr31         O39   2.386       .  S
Zr31         O40   2.384       .  S
Zr32         O51   2.436       .  S
Zr32         O44   2.435       .  S
Zr32         O45   2.434       .  S
Zr32         O38   2.396       .  S
Zr32         O39   2.399       .  S
Zr33         O35   2.435       .  S
Zr33         O57   2.438       .  S
Zr33         O59   2.410       .  S
Zr33         O37   2.395       .  S
Zr33         O40   2.395       .  S
Zr34         O60   2.434       .  S
Zr34         O61   2.432       .  S
Zr34         O36   2.437       .  S
Zr34         O37   2.389       .  S
Zr34         O38   2.377       .  S
O35          H72   0.990       .  S
O36          H67   0.990       .  S
O36          H81   0.990       .  S
O38          H64   0.964       .  S
O39         Zr49   2.380       .  S
O40         Zr49   2.376       .  S
O40          H65   0.966       .  S
C41         C207   1.465       .  S
C43          C94   1.465       .  S
O44          H80   0.990       .  S
O45          C47   1.284       .  A
O46          C47   1.288       .  A
O48         Zr49   2.436       .  S
O48          H77   0.991       .  S
Zr49         O52   2.438       .  S
Zr49         O53   2.440       .  S
Zr49         O54   2.393       .  S
O50          C55   1.285       .  A
O51          H68   0.991       .  S
O51          H83   0.990       .  S
O52          H69   0.990       .  S
O53          H73   0.990       .  S
O53          H82   0.990       .  S
O54          C55   1.277       .  A
C55         C218   1.469       .  S
O56          H75   0.992       .  S
O56          H79   0.989       .  S
O57          H71   0.990       .  S
O57          H78   0.990       .  S
O58          C62   1.287       .  A
O59          C62   1.279       .  A
O60          H70   0.990       .  S
O61          H74   0.990       .  S
C62         C191   1.470       .  S
C85          C86   1.399       .  A
C85          C90   1.397       .  A
C86         C495   1.412       .  A
C86          H91   1.077       .  S
C87         C494   1.412       .  A
C87         C496   1.414       .  A
C87          C96   1.511   1_556  S
C88          C89   1.404       .  A
C88         C495   1.414       .  A
C88          H92   1.079       .  S
C89          C90   1.399       .  A
C89         C107   1.475       .  S
C90          H93   1.084       .  S
C94          C95   1.398       .  A
C94          C99   1.396       .  A
C95          C96   1.416       .  A
C95         H100   1.077       .  S
C96          C97   1.416       .  A
C97          C98   1.405       .  A
C97         H101   1.079       .  S
C98          C99   1.395       .  A
C98         C164   1.470       .  S
C99         H102   1.085       .  S
C103        C108   1.405       .  A
C103        C920   1.409       .  A
C103        C149   1.469       .  S
C104        C919   1.409       .  A
C104        C921   1.408       .  A
C104        H109   1.083       .  S
C105        C106   1.402       .  A
C105        C920   1.408       .  A
C105        C361   1.469       .  S
C106        C107   1.395       .  A
C106        H110   1.085       .  S
C107        C108   1.398       .  A
C108        H111   1.085       .  S
C112        C521   1.405       .  A
C112        C933   1.406       .  A
C112        C144   1.460       .  S
C113        C114   1.397       .  A
C113        C520   1.405       .  A
C113        H526   1.084       .  S
C114        C115   1.397       .  A
C114        C196   1.470       .  S
C115        C116   1.399       .  A
C115        H119   1.085       .  S
C116       C1341   1.402       .  A
C116        C347   1.465       .  S
C117        C928   1.406       .  A
C117       C1340   1.402       .  A
C117        H120   1.084       .  S
H118        C521   1.084       .  S
Zr121       O122   2.443       .  S
Zr121       O123   2.450   1_545  S
Zr121       O124   2.437       .  S
Zr121       O127   2.440       .  S
Zr121       O129   2.382   1_545  S
Zr121       O131   2.415       .  S
Zr121       O132   2.398       .  S
Zr121       O946   2.387   1_545  S
O122        H178   0.991       .  S
O122        H186   0.990       .  S
O123        C959   1.284       .  A
O124        C145   1.282       .  A
O125       Zr135   2.417       .  S
O125        C960   1.280       .  A
O126       Zr134   2.430       .  S
O126        C145   1.284       .  A
O127        C144   1.285       .  A
O128       Zr136   2.393       .  S
O128        C143   1.276       .  A
O129       Zr134   2.397   1_565  S
O129       Zr952   2.383       .  S
O130       Zr135   2.392       .  S
O130       Zr136   2.378       .  S
O130       Zr937   2.387       .  S
O130        H165   0.966       .  S
O131       Zr134   2.402       .  S
O131       Zr151   2.383       .  S
O131        H168   0.964       .  S
O132       Zr151   2.382       .  S
O132       Zr951   2.386   1_545  S
Zr133       O158   2.441       .  S
Zr133       O152   2.454       .  S
Zr133       O160   2.452       .  S
Zr133       O148   2.452       .  S
Zr133       O139   2.407       .  S
Zr133       O140   2.413       .  S
Zr133       O142   2.384       .  S
Zr133       O957   2.387       .  S
Zr134       O153   2.437       .  S
Zr134       O146   2.434       .  S
Zr134       O147   2.433   1_545  S
Zr134       O141   2.399       .  S
Zr134       O956   2.396   1_545  S
Zr135       O137   2.435       .  S
Zr135       O159   2.438       .  S
Zr135       O161   2.410       .  S
Zr135       O139   2.395       .  S
Zr135       O142   2.395       .  S
Zr135       O948   2.386       .  S
Zr136       O162   2.434       .  S
Zr136       O163   2.431       .  S
Zr136       O138   2.437       .  S
Zr136       O139   2.389       .  S
Zr136       O140   2.376       .  S
Zr136       O945   2.383       .  S
O137        H174   0.990       .  S
O138        H169   0.990       .  S
O138        H183   0.990       .  S
O140       Zr950   2.396       .  S
O140        H166   0.964       .  S
O141       Zr151   2.380       .  S
O141       Zr949   2.387   1_545  S
O142       Zr967   2.375       .  S
O142        H167   0.966       .  S
C143        C318   1.465       .  S
C143        O939   1.284       .  A
C144        O941   1.280   1_545  A
C145        C187   1.464       .  S
O146        H182   0.990   1_545  S
O147        C965   1.284       .  A
O148        C149   1.287       .  A
C149        O963   1.284       .  A
O150       Zr151   2.436       .  S
O150        H179   0.991       .  S
Zr151       O154   2.438       .  S
Zr151       O155   2.440       .  S
Zr151       O156   2.394       .  S
Zr151       O958   2.375   1_545  S
O152        C973   1.285       .  A
O153        H170   0.991       .  S
O153        H185   0.990       .  S
O154        H171   0.990       .  S
O155        H175   0.990       .  S
O155        H184   0.990       .  S
O156        C157   1.277       .  A
C157        C311   1.470       .  S
C157        O968   1.285   1_545  A
O158        H177   0.992       .  S
O158        H181   0.989       .  S
O159        H173   0.990       .  S
O159        H180   0.990       .  S
O160        C164   1.287       .  A
O161        C164   1.279       .  A
O162        H172   0.990       .  S
O163        H176   0.990       .  S
C187        C188   1.398       .  A
C187        C192   1.396       .  A
C188        C189   1.416       .  A
C188        H193   1.077       .  S
C189        C190   1.416       .  A
C189        C200   1.512       .  S
C190        C191   1.405       .  A
C190        H194   1.079       .  S
C191        C192   1.394       .  A
C192        H195   1.085       .  S
C196        C197   1.397       .  A
C196        C201   1.400       .  A
C197        C198   1.399       .  A
C197        H610   1.084       .  S
C198        C199   1.404       .  A
C199        C200   1.414       .  A
C199        H203   1.079       .  S
C200        C201   1.413       .  A
C201        H204   1.077       .  S
H202        C605   1.084   1_554  S
C205        C206   1.406       .  A
C205        C210   1.406       .  A
C205        C246   1.460       .  S
C206        C207   1.403       .  A
C206        H211   1.084       .  S
C207        C208   1.399       .  A
C208        C209   1.396       .  A
C208        H212   1.085       .  S
C209        C210   1.397       .  A
C209        C298   1.470       .  S
C210        H213   1.084       .  S
C214        C215   1.405       .  A
C214        C219   1.409       .  A
C214        C251   1.469       .  S
C215        C216   1.398       .  A
C215        H220   1.084       .  S
C216        C217   1.395       .  A
C216        C391   1.474       .  S
C217        C218   1.402       .  A
C217        H221   1.085       .  S
C218        C219   1.408       .  A
C219        H222   1.083       .  S
Zr223       O224   2.443       .  S
Zr223       O225   2.450       .  S
Zr223       O226   2.438       .  S
Zr223       O637   2.442       .  S
Zr223       O231   2.382       .  S
Zr223       O232   2.387       .  S
Zr223      O1865   2.415   1_455  S
Zr223      O2274   2.397   1_455  S
O224        H280   0.991       .  S
O224        H288   0.990       .  S
O225        C245   1.284       .  A
O226        C247   1.283       .  A
O227      Zr1869   2.417   1_455  S
O227        C246   1.280       .  A
O228      Zr1868   2.430   1_455  S
O228        C247   1.284       .  A
O229       Zr631   2.442   1_554  S
O229        C246   1.285       .  A
O230       Zr238   2.394       .  S
O230        C245   1.277       .  A
O231       Zr238   2.383       .  S
O231      Zr1868   2.397   1_455  S
O232       Zr238   2.378       .  S
O232      Zr2277   2.392   1_455  S
O232        H267   0.966       .  S
O233       Zr236   2.402       .  S
O233       Zr253   2.382       .  S
O233      Zr1855   2.415       .  S
O233        H270   0.964       .  S
O234       Zr237   2.386   1_556  S
O234      Zr2263   2.397       .  S
O234       Zr661   2.382       .  S
Zr235       O260   2.441       .  S
Zr235       O254   2.455       .  S
Zr235       O262   2.452       .  S
Zr235       O250   2.452       .  S
Zr235       O241   2.408       .  S
Zr235       O242   2.413       .  S
Zr235       O243   2.386       .  S
Zr235       O244   2.385       .  S
Zr236       O255   2.437       .  S
Zr236       O248   2.435       .  S
Zr236       O249   2.433       .  S
Zr236      O1860   2.430       .  S
Zr236       O242   2.396       .  S
Zr236       O243   2.399       .  S
Zr236      O1863   2.397       .  S
Zr237       O239   2.435       .  S
Zr237      O1893   2.438       .  S
Zr237       O263   2.411       .  S
Zr237      O1859   2.417       .  S
Zr237      O2272   2.392   1_554  S
Zr237       O649   2.394   1_554  S
Zr237       O652   2.395   1_554  S
Zr238       O264   2.434       .  S
Zr238       O265   2.431   1_455  S
Zr238       O240   2.437       .  S
Zr238      O1873   2.389   1_455  S
Zr238      O1874   2.377   1_455  S
O239        H276   0.990       .  S
O240        H271   0.990       .  S
O240        H285   0.990       .  S
O241       Zr645   2.394       .  S
O241      Zr1870   2.389       .  S
O242      Zr1870   2.377       .  S
O242        H268   0.964       .  S
O243       Zr253   2.380       .  S
O244       Zr253   2.376       .  S
O244       Zr645   2.395       .  S
O244        H677   0.966       .  S
C247        C289   1.465       .  S
O248       H1916   0.990       .  S
O249        C251   1.284       .  A
O250        C251   1.287       .  A
O252       Zr661   2.436   1_554  S
O252        H281   0.991       .  S
Zr253       O256   2.438       .  S
Zr253       O660   2.436       .  S
Zr253       O665   2.440       .  S
Zr253       O258   2.392       .  S
Zr253       O642   2.382       .  S
O254        C259   1.285       .  A
O255        H272   0.991       .  S
O255        H287   0.990       .  S
O256        H273   0.990       .  S
O257       Zr661   2.440   1_554  S
O257        H277   0.990       .  S
O257        H286   0.990       .  S
O258        C259   1.277       .  A
O260        H279   0.992       .  S
O260        H283   0.989       .  S
O261      Zr1869   2.438   1_455  S
O261        H275   0.990       .  S
O261        H282   0.990       .  S
O262        C674   1.287       .  A
O263        C266   1.280       .  A
O264        H274   0.990       .  S
O265       H1910   0.990       .  S
C266        C404   1.470       .  S
C266        O670   1.287   1_554  A
H269        O652   0.966   1_554  S
H278       O1897   0.990       .  S
H284       O1880   0.990       .  S
C289        C290   1.396       .  A
C289        C294   1.399       .  A
C290        C291   1.394       .  A
C290        H295   1.085       .  S
C291        C292   1.405       .  A
C291        C368   1.470       .  S
C292        C293   1.416       .  A
C292        H296   1.079       .  S
C293        C294   1.417       .  A
C293        C300   1.512       .  S
C294        H297   1.077       .  S
C298        C299   1.400       .  A
C298        C303   1.398       .  A
C299        C300   1.413       .  A
C299        H304   1.077       .  S
C300        C301   1.414       .  A
C301        C302   1.404       .  A
C301        H305   1.079       .  S
C302        C303   1.399       .  A
C302        C309   1.475       .  S
C303        H306   1.084       .  S
C307        C308   1.406       .  A
C307       C1128   1.409       .  A
C307        C353   1.469       .  S
C308        C309   1.398       .  A
C308        H313   1.085       .  S
C309        C310   1.395       .  A
C310        C311   1.402       .  A
C310        H314   1.085       .  S
C311       C1128   1.408       .  A
C312       C1123   1.409       .  A
C312       C1127   1.408       .  A
C312        H315   1.083       .  S
C316        C321   1.405       .  A
C316       C1133   1.406       .  A
C316        C348   1.460       .  S
C317       C1132   1.406       .  A
C317       C1134   1.402       .  A
C317        H322   1.084       .  S
C318        C319   1.399       .  A
C318       C1133   1.402       .  A
C319        C320   1.397       .  A
C319        H323   1.085       .  S
C320        C321   1.397       .  A
C320        C395   1.470       .  S
C321        H324   1.084       .  S
Zr325       O326   2.442       .  S
Zr325       O327   2.449       .  S
Zr325       O328   2.437       .  S
Zr325       O331   2.440       .  S
Zr325       O333   2.382       .  S
Zr325       O335   2.414       .  S
Zr325       O336   2.397       .  S
Zr325      O1150   2.387       .  S
O326        H382   0.991       .  S
O326        H390   0.990       .  S
O327       C1163   1.284       .  A
O328        C757   1.283       .  A
O329       Zr339   2.418   1_565  S
O329       C1164   1.281       .  A
O330       Zr338   2.430       .  S
O330        C349   1.284       .  A
O331        C348   1.285       .  A
O332       Zr340   2.394       .  S
O332        C347   1.276       .  A
O333       Zr746   2.396       .  S
O333      Zr1156   2.383       .  S
O334       Zr339   2.392       .  S
O334       Zr340   2.378       .  S
O334      Zr1141   2.387   1_545  S
O334        H369   0.966       .  S
O335       Zr746   2.401       .  S
O335      Zr1987   2.383       .  S
O335        H372   0.964       .  S
O336      Zr1155   2.386       .  S
O336      Zr1987   2.381       .  S
Zr337       O362   2.441       .  S
Zr337       O356   2.454       .  S
Zr337       O364   2.452       .  S
Zr337       O760   2.452       .  S
Zr337       O346   2.384       .  S
Zr337      O1975   2.407   1_455  S
Zr337      O2384   2.413   1_455  S
Zr337      O1161   2.387   1_545  S
Zr338       O350   2.435       .  S
Zr338      O1989   2.437       .  S
Zr338      O1983   2.433       .  S
Zr338       O741   2.396       .  S
Zr338       O743   2.401   1_554  S
Zr338      O1160   2.396   1_554  S
Zr338      O2385   2.400   1_554  S
Zr339       O341   2.435       .  S
Zr339       O363   2.438       .  S
Zr339      O1997   2.410       .  S
Zr339       O343   2.395       .  S
Zr339      O1152   2.386   1_545  S
Zr339      O1978   2.395       .  S
Zr340       O366   2.434       .  S
Zr340       O775   2.432       .  S
Zr340       O750   2.437       .  S
Zr340       O343   2.390       .  S
Zr340      O1149   2.383   1_545  S
Zr340       O752   2.376       .  S
O341        H378   0.990       .  S
O342       Zr748   2.437   1_554  S
O342        H373   0.990       .  S
O342        H387   0.990       .  S
O343      Zr1969   2.407       .  S
O344      Zr2377   2.413       .  S
O344      Zr1154   2.396   1_546  S
O344       Zr748   2.376       .  S
O344        H370   0.964   1_556  S
O345       Zr355   2.380       .  S
O345      Zr1153   2.387       .  S
O345      Zr2378   2.400   1_455  S
O346      Zr1971   2.395   1_455  S
O346      Zr1171   2.375   1_545  S
O346        H371   0.965       .  S
C347       O1143   1.284   1_545  A
C348       O1145   1.281       .  A
C349        C400   1.465       .  S
C349        O736   1.283   1_554  A
O350        H386   0.990       .  S
O351      Zr1970   2.433   1_455  S
O351       C1169   1.284       .  A
O352       Zr745   2.452   1_554  S
O352        C353   1.288       .  A
C353       O1167   1.284   1_545  A
O354      Zr1987   2.436       .  S
O354       H2015   0.991       .  S
Zr355       O358   2.438       .  S
Zr355       O359   2.440       .  S
Zr355      O1986   2.436   1_455  S
Zr355       O360   2.392       .  S
Zr355      O1967   2.383   1_455  S
Zr355      O1968   2.381   1_455  S
Zr355      O1162   2.375       .  S
O356       C1177   1.285   1_545  A
O357      Zr1970   2.437   1_455  S
O357        H374   0.991       .  S
O357        H389   0.990       .  S
O358        H375   0.990       .  S
O359        H379   0.990       .  S
O359        H388   0.990   1_455  S
O360        C361   1.277       .  A
C361       O1172   1.285       .  A
O362        H381   0.992       .  S
O362        H793   0.989       .  S
O363        H377   0.990       .  S
O363        H384   0.990       .  S
O364        C368   1.287       .  A
O365      Zr1971   2.410       .  S
O365        C368   1.279   1_655  A
O366        H376   0.990       .  S
O367       Zr748   2.432   1_554  S
O367        H380   0.990   1_554  S
H383       O1986   0.991   1_455  S
H385        O770   0.989       .  S
C391        C392   1.404       .  A
C391        C396   1.399       .  A
C392        C393   1.414       .  A
C392        H397   1.079       .  S
C393        C394   1.412       .  A
C393        C402   1.511       .  S
C394        C395   1.400       .  A
C394        H398   1.077       .  S
C395        C396   1.398       .  A
C396        H399   1.084       .  S
C400        C401   1.398       .  A
C400        C813   1.396       .  A
C401        C402   1.416       .  A
C401        H406   1.077       .  S
C402        C403   1.416       .  A
C403        C404   1.404       .  A
C403        H407   1.079       .  S
C404        C813   1.395       .  A
C405        C808   1.396       .  A
C405        C812   1.395       .  A
C405        H408   1.085       .  S
C409        C410   1.405       .  A
C409        C414   1.406       .  A
C409        C450   1.460       .  S
C410        C411   1.397       .  A
C410        H415   1.084       .  S
C411        C412   1.396       .  A
C411        C493   1.470       .  S
C412        C413   1.399       .  A
C412        H416   1.085       .  S
C413        C414   1.403       .  A
C413        C653   1.466       .  S
C414        H417   1.084       .  S
C418        C419   1.409       .  A
C418        C455   1.469       .  S
C419        H424   1.083       .  S
C420        C421   1.402       .  A
C420        C667   1.469       .  S
C421        C422   1.395       .  A
C421        H425   1.085       .  S
C422        C423   1.398   1_556  A
C422        C606   1.475       .  S
Zr427       O428   2.443       .  S
Zr427       O429   2.449       .  S
Zr427       O430   2.437       .  S
Zr427       O433   2.442       .  S
Zr427       O435   2.382       .  S
Zr427       O436   2.387       .  S
Zr427       O437   2.415       .  S
Zr427       O438   2.397       .  S
O428        H484   0.991       .  S
O428        H492   0.990       .  S
O429        C449   1.284       .  A
O430        C451   1.283       .  A
O431       Zr441   2.416       .  S
O431        C450   1.280       .  A
O432       Zr440   2.430       .  S
O432        C451   1.284       .  A
O433        C450   1.285       .  A
O434       Zr442   2.394       .  S
O434        C449   1.277       .  A
O435       Zr440   2.397       .  S
O435       Zr442   2.383       .  S
O436       Zr441   2.392       .  S
O436       Zr442   2.378       .  S
O436        H471   0.966       .  S
O437       Zr440   2.402       .  S
O437       Zr457   2.382       .  S
O437        H474   0.964       .  S
O438       Zr441   2.386       .  S
O438       Zr457   2.382       .  S
Zr439       O464   2.441       .  S
Zr439       O458   2.454       .  S
Zr439       O466   2.454       .  S
Zr439       O454   2.453       .  S
Zr439       O445   2.407       .  S
Zr439       O446   2.414       .  S
Zr439       O447   2.386       .  S
Zr439       O448   2.384       .  S
Zr440       O459   2.436       .  S
Zr440       O452   2.435       .  S
Zr440       O453   2.434       .  S
Zr440       O446   2.396       .  S
Zr440       O447   2.399       .  S
Zr441       O443   2.435       .  S
Zr441       O465   2.438       .  S
Zr441       O467   2.410       .  S
Zr441       O445   2.395       .  S
Zr441       O448   2.395       .  S
Zr442       O468   2.434       .  S
Zr442       O469   2.432       .  S
Zr442       O444   2.437       .  S
Zr442       O445   2.389       .  S
Zr442       O446   2.377       .  S
O443        H480   0.990       .  S
O444        H475   0.990       .  S
O444        H489   0.990       .  S
O446        H472   0.964       .  S
O447       Zr457   2.380       .  S
O448       Zr457   2.376       .  S
O448        H473   0.966       .  S
C449        C615   1.465       .  S
C451        C502   1.465       .  S
O452        H488   0.990       .  S
O453        C455   1.284       .  A
O454        C455   1.288       .  A
O456       Zr457   2.436       .  S
O456        H485   0.991       .  S
Zr457       O460   2.438       .  S
Zr457       O461   2.440       .  S
Zr457       O462   2.393       .  S
O458        C463   1.285       .  A
O459        H476   0.991       .  S
O459        H491   0.990       .  S
O460        H477   0.990       .  S
O461        H481   0.990       .  S
O461        H490   0.990       .  S
O462        C463   1.277       .  A
C463        C626   1.469       .  S
O464        H483   0.992       .  S
O464        H487   0.989       .  S
O465        H479   0.990       .  S
O465        H486   0.990       .  S
O466        C470   1.287       .  A
O467        C470   1.279       .  A
O468        H478   0.990       .  S
O469        H482   0.990       .  S
C470        C599   1.470       .  S
C493        C494   1.399       .  A
C493        C498   1.397       .  A
C494        H499   1.077       .  S
C495        C504   1.511       .  S
C496        C497   1.404       .  A
C496        H500   1.079       .  S
C497        C498   1.399       .  A
C497        C515   1.475       .  S
C498        H501   1.084       .  S
C502        C503   1.398       .  A
C502        C507   1.396       .  A
C503        C504   1.416       .  A
C503        H508   1.077       .  S
C504        C505   1.416       .  A
C505        C506   1.405       .  A
C505        H509   1.079       .  S
C506        C507   1.395       .  A
C506        C572   1.470       .  S
C507        H510   1.085       .  S
C511       C1328   1.409       .  A
C511        C516   1.405       .  A
C511        C557   1.469       .  S
C512       C1327   1.409       .  A
C512       C1329   1.408       .  A
C512        H517   1.083       .  S
C513       C1328   1.408       .  A
C513        C514   1.402       .  A
C513        C769   1.469       .  S
C514        C515   1.395       .  A
C514        H518   1.085       .  S
C515        C516   1.398       .  A
C516        H519   1.085       .  S
C520       C1341   1.406       .  A
C520        C552   1.460       .  S
C521        C522   1.397   1_554  A
C522        C523   1.397       .  A
C522        C604   1.470       .  S
C523        C524   1.399   1_556  A
C523        H527   1.085       .  S
C524        C933   1.402       .  A
C524        C755   1.465   1_554  S
C525       C1336   1.406       .  A
C525        C932   1.402       .  A
C525        H528   1.084       .  S
Zr529       O530   2.443       .  S
Zr529       O531   2.450   1_545  S
Zr529       O532   2.437       .  S
Zr529       O535   2.440       .  S
Zr529       O537   2.382   1_545  S
Zr529      O1354   2.387   1_545  S
Zr529       O539   2.415       .  S
Zr529       O540   2.398       .  S
O530        H586   0.991       .  S
O530        H594   0.990       .  S
O531       C1367   1.284       .  A
O532        C553   1.282       .  A
O533       Zr543   2.417       .  S
O533       C1368   1.280       .  A
O534       Zr542   2.430       .  S
O534        C553   1.284       .  A
O535        C552   1.285       .  A
O536       Zr544   2.393       .  S
O536        C551   1.276       .  A
O537       Zr542   2.397   1_565  S
O537      Zr1360   2.383       .  S
O538      Zr1345   2.387       .  S
O538       Zr543   2.392       .  S
O538       Zr544   2.378       .  S
O538        H573   0.966       .  S
O539       Zr542   2.402       .  S
O539       Zr559   2.383       .  S
O539        H576   0.964       .  S
O540      Zr1359   2.386   1_545  S
O540       Zr559   2.382       .  S
Zr541       O566   2.441       .  S
Zr541       O560   2.454       .  S
Zr541       O568   2.452       .  S
Zr541       O556   2.452       .  S
Zr541       O547   2.407       .  S
Zr541       O548   2.413       .  S
Zr541      O1365   2.387       .  S
Zr541       O550   2.384       .  S
Zr542       O561   2.437       .  S
Zr542       O554   2.434       .  S
Zr542       O555   2.433   1_545  S
Zr542      O1364   2.396   1_545  S
Zr542       O549   2.399       .  S
Zr543       O545   2.435       .  S
Zr543       O567   2.438       .  S
Zr543       O569   2.410       .  S
Zr543      O1356   2.386       .  S
Zr543       O547   2.395       .  S
Zr543       O550   2.395       .  S
Zr544       O570   2.434       .  S
Zr544       O571   2.431       .  S
Zr544       O546   2.437       .  S
Zr544      O1353   2.383       .  S
Zr544       O547   2.389       .  S
Zr544       O548   2.376       .  S
O545        H582   0.990       .  S
O546        H577   0.990       .  S
O546        H591   0.990       .  S
O548      Zr1358   2.396       .  S
O548        H574   0.964       .  S
O549      Zr1357   2.387   1_545  S
O549       Zr559   2.380       .  S
O550      Zr1375   2.375       .  S
O550        H575   0.966       .  S
C551        C726   1.465       .  S
C551       O1347   1.284       .  A
C552       O1349   1.280   1_545  A
C553        C595   1.464       .  S
O554        H590   0.990   1_545  S
O555       C1373   1.284       .  A
O556        C557   1.287       .  A
C557       O1371   1.284       .  A
O558       Zr559   2.436       .  S
O558        H587   0.991       .  S
Zr559       O562   2.438       .  S
Zr559       O563   2.440       .  S
Zr559       O564   2.394       .  S
Zr559      O1366   2.375   1_545  S
O560       C1381   1.285       .  A
O561        H578   0.991       .  S
O561        H593   0.990       .  S
O562        H579   0.990       .  S
O563        H583   0.990       .  S
O563        H592   0.990       .  S
O564        C565   1.277       .  A
C565        C719   1.470       .  S
C565       O1376   1.285   1_545  A
O566        H585   0.992       .  S
O566        H589   0.989       .  S
O567        H581   0.990       .  S
O567        H588   0.990       .  S
O568        C572   1.287       .  A
O569        C572   1.279       .  A
O570        H580   0.990       .  S
O571        H584   0.990       .  S
C595        C596   1.398       .  A
C595        C600   1.396       .  A
C596        C597   1.416       .  A
C596        H601   1.077       .  S
C597        C598   1.416       .  A
C597        C608   1.512       .  S
C598        C599   1.405       .  A
C598        H602   1.079       .  S
C599        C600   1.394       .  A
C600        H603   1.085       .  S
C604        C605   1.397       .  A
C604        C609   1.400       .  A
C605        C606   1.399       .  A
C606        C607   1.404       .  A
C607        C608   1.414       .  A
C607        H611   1.079       .  S
C608        C609   1.413       .  A
C609        H612   1.077       .  S
C613        C614   1.406       .  A
C613        C618   1.406       .  A
C613        C654   1.460       .  S
C614        C615   1.403       .  A
C614        H619   1.084       .  S
C615        C616   1.399       .  A
C616        C617   1.396       .  A
C616        H620   1.085       .  S
C617        C618   1.397       .  A
C617        C706   1.470       .  S
C618        H621   1.084       .  S
C622        C623   1.405       .  A
C622        C627   1.409       .  A
C622        C659   1.469       .  S
C623        C624   1.398       .  A
C623        H628   1.084       .  S
C624        C625   1.395       .  A
C624        C799   1.474       .  S
C625        C626   1.402       .  A
C625        H629   1.085       .  S
C626        C627   1.408       .  A
C627        H630   1.083       .  S
Zr631       O632   2.443       .  S
Zr631       O633   2.450       .  S
Zr631       O634   2.438       .  S
Zr631       O639   2.382       .  S
Zr631       O640   2.387       .  S
Zr631      O2273   2.415   1_455  S
Zr631      O1866   2.397   1_455  S
O632        H688   0.991       .  S
O632        H696   0.990       .  S
O633        C653   1.284       .  A
O634        C655   1.283       .  A
O635      Zr2277   2.417   1_455  S
O635        C654   1.280       .  A
O636      Zr2276   2.430   1_455  S
O636        C655   1.284       .  A
O637        C654   1.285       .  A
O638       Zr646   2.394       .  S
O638        C653   1.277       .  A
O639      Zr2276   2.397   1_455  S
O639       Zr646   2.383       .  S
O640      Zr1869   2.392   1_456  S
O640       Zr646   2.378       .  S
O640        H675   0.966       .  S
O641      Zr2263   2.415       .  S
O641       Zr644   2.402       .  S
O641       Zr661   2.382       .  S
O641        H678   0.964       .  S
O642      Zr1855   2.397       .  S
O642       Zr645   2.386       .  S
Zr643       O668   2.441       .  S
Zr643       O662   2.455       .  S
Zr643       O670   2.452       .  S
Zr643       O658   2.452       .  S
Zr643       O649   2.408       .  S
Zr643       O650   2.413       .  S
Zr643       O651   2.386       .  S
Zr643       O652   2.385       .  S
Zr644       O663   2.437       .  S
Zr644       O656   2.435       .  S
Zr644      O2268   2.430       .  S
Zr644       O657   2.433       .  S
Zr644      O2271   2.397       .  S
Zr644       O650   2.396       .  S
Zr644       O651   2.399       .  S
Zr645       O647   2.435       .  S
Zr645      O2301   2.438       .  S
Zr645      O2267   2.417       .  S
Zr645       O671   2.411       .  S
Zr645      O1864   2.392       .  S
Zr646       O672   2.434       .  S
Zr646       O673   2.431   1_455  S
Zr646       O648   2.437       .  S
Zr646      O2281   2.389   1_455  S
Zr646      O2282   2.377   1_455  S
O647        H684   0.990       .  S
O648        H679   0.990       .  S
O648        H693   0.990       .  S
O649      Zr2278   2.389       .  S
O650      Zr2278   2.377       .  S
O650        H676   0.964       .  S
O651       Zr661   2.380       .  S
O652       Zr661   2.376       .  S
C655        C697   1.465       .  S
O656       H2324   0.990       .  S
O657        C659   1.284       .  A
O658        C659   1.287       .  A
O660        H689   0.991       .  S
Zr661       O664   2.438       .  S
Zr661       O666   2.392       .  S
O662        C667   1.285       .  A
O663        H680   0.991       .  S
O663        H695   0.990       .  S
O664        H681   0.990       .  S
O665        H685   0.990       .  S
O665        H694   0.990       .  S
O666        C667   1.277       .  A
O668        H687   0.992       .  S
O668        H691   0.989       .  S
O669      Zr2277   2.438   1_455  S
O669        H683   0.990       .  S
O669        H690   0.990       .  S
O671        C674   1.280       .  A
O672        H682   0.990       .  S
O673       H2318   0.990       .  S
C674        C812   1.470       .  S
H686       O2305   0.990       .  S
H692       O2288   0.990       .  S
C697        C698   1.396       .  A
C697        C702   1.399       .  A
C698        C699   1.394       .  A
C698        H703   1.085       .  S
C699        C700   1.405       .  A
C699        C776   1.470       .  S
C700        C701   1.416       .  A
C700        H704   1.079       .  S
C701        C702   1.417       .  A
C701        C708   1.512       .  S
C702        H705   1.077       .  S
C706        C707   1.400       .  A
C706        C711   1.398       .  A
C707        C708   1.413       .  A
C707        H712   1.077       .  S
C708        C709   1.414       .  A
C709        C710   1.404       .  A
C709        H713   1.079       .  S
C710        C711   1.399       .  A
C710        C717   1.475       .  S
C711        H714   1.084       .  S
C715        C716   1.406       .  A
C715       C1536   1.409       .  A
C715        C761   1.469       .  S
C716        C717   1.398       .  A
C716        H721   1.085       .  S
C717        C718   1.395       .  A
C718        C719   1.402       .  A
C718        H722   1.085       .  S
C719       C1536   1.408       .  A
C720       C1531   1.409       .  A
C720       C1535   1.408       .  A
C720        H723   1.083       .  S
C724       C1541   1.406       .  A
C724        C729   1.405       .  A
C724        C756   1.460       .  S
C725       C1540   1.406       .  A
C725       C1542   1.402       .  A
C725        H730   1.084       .  S
C726       C1541   1.402       .  A
C726        C727   1.399       .  A
C727        C728   1.397       .  A
C727        H731   1.085       .  S
C728        C729   1.397       .  A
C728        C803   1.470       .  S
C729        H732   1.084       .  S
Zr733       O734   2.442       .  S
Zr733       O735   2.449       .  S
Zr733       O736   2.437       .  S
Zr733       O739   2.440       .  S
Zr733       O741   2.382   1_556  S
Zr733      O1558   2.387       .  S
Zr733       O743   2.414       .  S
Zr733       O744   2.397       .  S
O734        H790   0.991       .  S
O734        H798   0.990       .  S
O735       C1571   1.284       .  A
O737       Zr747   2.418   1_565  S
O737       C1572   1.281       .  A
O738       Zr746   2.430       .  S
O738        C757   1.284       .  A
O739        C756   1.285       .  A
O740       Zr748   2.394       .  S
O740        C755   1.276       .  A
O741      Zr1564   2.383   1_554  S
O742      Zr1549   2.387   1_545  S
O742       Zr747   2.392       .  S
O742       Zr748   2.378       .  S
O742        H777   0.966       .  S
O743      Zr2395   2.383       .  S
O743        H780   0.964       .  S
O744      Zr1563   2.386       .  S
O744      Zr2395   2.381       .  S
Zr745       O770   2.441       .  S
Zr745       O764   2.454       .  S
Zr745       O772   2.452       .  S
Zr745      O2383   2.407   1_455  S
Zr745      O1976   2.413   1_455  S
Zr745      O1569   2.387   1_545  S
Zr745       O754   2.384       .  S
Zr746      O2397   2.437       .  S
Zr746       O758   2.435       .  S
Zr746      O2391   2.433       .  S
Zr746      O1568   2.396       .  S
Zr746      O1977   2.400       .  S
Zr747       O749   2.435       .  S
Zr747       O771   2.438       .  S
Zr747      O2405   2.410       .  S
Zr747      O1560   2.386   1_545  S
Zr747       O751   2.395       .  S
Zr747      O2386   2.395       .  S
Zr748       O774   2.434       .  S
Zr748      O1557   2.383   1_546  S
Zr748       O751   2.390       .  S
O749        H786   0.990       .  S
O750        H781   0.990       .  S
O750        H795   0.990       .  S
O751      Zr2377   2.407       .  S
O752      Zr1969   2.413       .  S
O752      Zr1562   2.396   1_545  S
O752        H778   0.964       .  S
O753      Zr1561   2.387       .  S
O753      Zr1970   2.400   1_456  S
O753       Zr763   2.380       .  S
O754      Zr2379   2.395   1_455  S
O754      Zr1579   2.375   1_545  S
O754        H779   0.965       .  S
C755       O1551   1.284   1_545  A
C756       O1553   1.281       .  A
C757        C808   1.465       .  S
O758        H794   0.990       .  S
O759      Zr2378   2.433   1_455  S
O759       C1577   1.284       .  A
O760        C761   1.288       .  A
C761       O1575   1.284   1_545  A
O762      Zr2395   2.436       .  S
O762       H2423   0.991       .  S
Zr763      O2394   2.436   1_455  S
Zr763       O766   2.438       .  S
Zr763       O767   2.440       .  S
Zr763       O768   2.392       .  S
Zr763      O2375   2.383   1_455  S
Zr763      O2376   2.381   1_455  S
Zr763      O1570   2.375       .  S
O764       C1585   1.285   1_545  A
O765      Zr2378   2.437   1_455  S
O765        H782   0.991       .  S
O765        H797   0.990       .  S
O766        H783   0.990       .  S
O767        H787   0.990       .  S
O767        H796   0.990   1_455  S
O768        C769   1.277       .  A
C769       O1580   1.285       .  A
O770        H789   0.992       .  S
O771        H785   0.990       .  S
O771        H792   0.990       .  S
O772        C776   1.287       .  A
O773      Zr2379   2.410       .  S
O773        C776   1.279   1_655  A
O774        H784   0.990       .  S
O775        H788   0.990       .  S
H791       O2394   0.991   1_455  S
C799        C800   1.404       .  A
C799        C804   1.399       .  A
C800        C801   1.414       .  A
C800        H805   1.079       .  S
C801        C802   1.412       .  A
C801        C810   1.511       .  S
C802        C803   1.400       .  A
C802        H806   1.077       .  S
C803        C804   1.398       .  A
C804        H807   1.084       .  S
C808        C809   1.398       .  A
C809        C810   1.416       .  A
C809        H814   1.077       .  S
C810        C811   1.416       .  A
C811        C812   1.404       .  A
C811        H815   1.079       .  S
C813        H816   1.085   1_554  S
C817        C818   1.405       .  A
C817        C822   1.406       .  A
C817        C858   1.460       .  S
C818        C819   1.397       .  A
C818        H823   1.084       .  S
C819        C820   1.396       .  A
C819        C901   1.470       .  S
C820        C821   1.399       .  A
C820        H824   1.085       .  S
C821        C822   1.403       .  A
C821       C1061   1.466       .  S
C822        H825   1.084       .  S
C826        C827   1.409       .  A
C826       C1239   1.406       .  A
C826        C863   1.469       .  S
C827       C1236   1.408   1_554  A
C827        H832   1.083       .  S
C828       C1235   1.408       .  A
C828        C829   1.402       .  A
C828       C1075   1.469       .  S
C829        C830   1.395       .  A
C829        H833   1.085       .  S
C830        C831   1.398       .  A
C830       C1014   1.475       .  S
C831       C1234   1.406       .  A
C831       H1242   1.084       .  S
H834       C1239   1.084       .  S
Zr835       O836   2.443       .  S
Zr835       O837   2.449       .  S
Zr835       O838   2.437       .  S
Zr835       O841   2.442       .  S
Zr835       O843   2.382       .  S
Zr835       O844   2.387       .  S
Zr835       O845   2.415       .  S
Zr835       O846   2.397       .  S
O836        H892   0.991       .  S
O836        H900   0.990       .  S
O837        C857   1.284       .  A
O838        C859   1.283       .  A
O839       Zr849   2.416       .  S
O839        C858   1.280       .  A
O840       Zr848   2.430       .  S
O840        C859   1.284       .  A
O841        C858   1.285       .  A
O842       Zr850   2.394       .  S
O842        C857   1.277       .  A
O843       Zr848   2.397       .  S
O843       Zr850   2.383       .  S
O844       Zr849   2.392       .  S
O844       Zr850   2.378       .  S
O844        H879   0.966       .  S
O845       Zr848   2.402       .  S
O845       Zr865   2.382       .  S
O845        H882   0.964       .  S
O846       Zr849   2.386       .  S
O846       Zr865   2.382       .  S
Zr847       O872   2.441       .  S
Zr847       O866   2.454       .  S
Zr847       O874   2.454       .  S
Zr847       O862   2.453       .  S
Zr847       O853   2.407       .  S
Zr847       O854   2.414       .  S
Zr847       O855   2.386       .  S
Zr847       O856   2.384       .  S
Zr848       O867   2.436       .  S
Zr848       O860   2.435       .  S
Zr848       O861   2.434       .  S
Zr848       O854   2.396       .  S
Zr848       O855   2.399       .  S
Zr849       O851   2.435       .  S
Zr849       O873   2.438       .  S
Zr849       O875   2.410       .  S
Zr849       O853   2.395       .  S
Zr849       O856   2.395       .  S
Zr850       O876   2.434       .  S
Zr850       O877   2.432       .  S
Zr850       O852   2.437       .  S
Zr850       O853   2.389       .  S
Zr850       O854   2.377       .  S
O851        H888   0.990       .  S
O852        H883   0.990       .  S
O852        H897   0.990       .  S
O854        H880   0.964       .  S
O855       Zr865   2.380       .  S
O856       Zr865   2.376       .  S
O856        H881   0.966       .  S
C857       C1023   1.465       .  S
C859        C910   1.465       .  S
O860        H896   0.990       .  S
O861        C863   1.284       .  A
O862        C863   1.288       .  A
O864       Zr865   2.436       .  S
O864        H893   0.991       .  S
Zr865       O868   2.438       .  S
Zr865       O869   2.440       .  S
Zr865       O870   2.393       .  S
O866        C871   1.285       .  A
O867        H884   0.991       .  S
O867        H899   0.990       .  S
O868        H885   0.990       .  S
O869        H889   0.990       .  S
O869        H898   0.990       .  S
O870        C871   1.277       .  A
C871       C1034   1.469       .  S
O872        H891   0.992       .  S
O872        H895   0.989       .  S
O873        H887   0.990       .  S
O873        H894   0.990       .  S
O874        C878   1.287       .  A
O875        C878   1.279       .  A
O876        H886   0.990       .  S
O877        H890   0.990       .  S
C878       C1007   1.470       .  S
C901        C902   1.399       .  A
C901        C906   1.397       .  A
C902       C1311   1.412       .  A
C902        H907   1.077       .  S
C903       C1310   1.412       .  A
C903       C1312   1.414       .  A
C903        C912   1.511   1_556  S
C904       C1311   1.414       .  A
C904        C905   1.404       .  A
C904        H908   1.079       .  S
C905        C906   1.399       .  A
C905        C923   1.475       .  S
C906        H909   1.084       .  S
C910        C911   1.398       .  A
C910        C915   1.396       .  A
C911        C912   1.416       .  A
C911        H916   1.077       .  S
C912        C913   1.416       .  A
C913        C914   1.405       .  A
C913        H917   1.079       .  S
C914        C915   1.395       .  A
C914        C980   1.470       .  S
C915        H918   1.085       .  S
C919        C924   1.405       .  A
C919        C965   1.469       .  S
C920        H925   1.083       .  S
C921        C922   1.402       .  A
C921       C1177   1.469       .  S
C922        C923   1.395       .  A
C922        H926   1.085       .  S
C923        C924   1.398       .  A
C924        H927   1.085       .  S
C928       C1337   1.405       .  A
C928        C960   1.460       .  S
C929       C1336   1.405       .  A
C929        C930   1.397       .  A
C929       H1342   1.084       .  S
C930        C931   1.397       .  A
C930       C1012   1.470       .  S
C931        C932   1.399       .  A
C931        H935   1.085       .  S
C932       C1163   1.465       .  S
C933        H936   1.084       .  S
H934       C1337   1.084       .  S
Zr937       O938   2.443       .  S
Zr937       O939   2.450       .  S
Zr937       O940   2.437       .  S
Zr937       O943   2.440       .  S
Zr937       O945   2.382       .  S
Zr937       O947   2.415       .  S
Zr937       O948   2.398       .  S
O938        H994   0.991       .  S
O938       H1002   0.990       .  S
O940        C961   1.282       .  A
O941       Zr951   2.417       .  S
O942       Zr950   2.430       .  S
O942        C961   1.284       .  A
O943        C960   1.285       .  A
O944       Zr952   2.393       .  S
O944        C959   1.276       .  A
O945       Zr950   2.397       .  S
O946       Zr951   2.392       .  S
O946       Zr952   2.378       .  S
O946        H981   0.966       .  S
O947       Zr950   2.402       .  S
O947       Zr967   2.383       .  S
O947        H984   0.964       .  S
O948       Zr967   2.382       .  S
Zr949       O974   2.441       .  S
Zr949       O968   2.454       .  S
Zr949       O976   2.452       .  S
Zr949       O964   2.452       .  S
Zr949       O955   2.407       .  S
Zr949       O956   2.413       .  S
Zr949       O958   2.384       .  S
Zr950       O969   2.437       .  S
Zr950       O962   2.434       .  S
Zr950       O963   2.433       .  S
Zr950       O957   2.399       .  S
Zr951       O953   2.435       .  S
Zr951       O975   2.438       .  S
Zr951       O977   2.410       .  S
Zr951       O955   2.395       .  S
Zr951       O958   2.395       .  S
Zr952       O978   2.434       .  S
Zr952       O979   2.431       .  S
Zr952       O954   2.437       .  S
Zr952       O955   2.389       .  S
Zr952       O956   2.376       .  S
O953        H990   0.990       .  S
O954        H985   0.990       .  S
O954        H999   0.990       .  S
O956        H982   0.964       .  S
O957       Zr967   2.380       .  S
O958        H983   0.966       .  S
C959       C1134   1.465       .  S
C961       C1003   1.464       .  S
O962        H998   0.990       .  S
O964        C965   1.287       .  A
O966       Zr967   2.436       .  S
O966        H995   0.991       .  S
Zr967       O970   2.438       .  S
Zr967       O971   2.440       .  S
Zr967       O972   2.394       .  S
O969        H986   0.991       .  S
O969       H1001   0.990       .  S
O970        H987   0.990       .  S
O971        H991   0.990       .  S
O971       H1000   0.990       .  S
O972        C973   1.277       .  A
C973       C1127   1.470       .  S
O974        H993   0.992       .  S
O974        H997   0.989       .  S
O975        H989   0.990       .  S
O975        H996   0.990       .  S
O976        C980   1.287       .  A
O977        C980   1.279       .  A
O978        H988   0.990       .  S
O979        H992   0.990       .  S
C1003      C1004   1.398       .  A
C1003      C1008   1.396       .  A
C1004      C1005   1.416       .  A
C1004      H1009   1.077       .  S
C1005      C1006   1.416       .  A
C1005      C1016   1.512       .  S
C1006      C1007   1.405       .  A
C1006      H1010   1.079       .  S
C1007      C1008   1.394       .  A
C1008      H1011   1.085       .  S
C1012      C1013   1.397       .  A
C1012      C1017   1.400       .  A
C1013      C1014   1.399       .  A
C1013      H1426   1.084       .  S
C1014      C1015   1.404       .  A
C1015      C1016   1.414       .  A
C1015      H1019   1.079       .  S
C1016      C1017   1.413       .  A
C1017      H1020   1.077       .  S
H1018      C1421   1.084   1_554  S
C1021      C1022   1.406       .  A
C1021      C1026   1.406       .  A
C1021      C1062   1.460       .  S
C1022      C1023   1.403       .  A
C1022      H1027   1.084       .  S
C1023      C1024   1.399       .  A
C1024      C1025   1.396       .  A
C1024      H1028   1.085       .  S
C1025      C1026   1.397       .  A
C1025      C1114   1.470       .  S
C1026      H1029   1.084       .  S
C1030      C1031   1.405       .  A
C1030      C1035   1.409       .  A
C1030      C1067   1.469       .  S
C1031      C1032   1.398       .  A
C1031      H1036   1.084       .  S
C1032      C1033   1.395       .  A
C1032      C1207   1.474       .  S
C1033      C1034   1.402       .  A
C1033      H1037   1.085       .  S
C1034      C1035   1.408       .  A
C1035      H1038   1.083       .  S
Zr1039     O1040   2.443       .  S
Zr1039     O1041   2.450       .  S
Zr1039     O1042   2.438       .  S
Zr1039     O1453   2.442       .  S
Zr1039     O1047   2.382       .  S
Zr1039     O1048   2.387       .  S
Zr1039     O2681   2.415   1_455  S
Zr1039     O3090   2.397   1_455  S
O1040      H1096   0.991       .  S
O1040      H1104   0.990       .  S
O1041      C1061   1.284       .  A
O1042      C1063   1.283       .  A
O1043     Zr2685   2.417   1_455  S
O1043      C1062   1.280       .  A
O1044     Zr2684   2.430   1_455  S
O1044      C1063   1.284       .  A
O1045     Zr1447   2.442   1_554  S
O1045      C1062   1.285       .  A
O1046     Zr1054   2.394       .  S
O1046      C1061   1.277       .  A
O1047     Zr2684   2.397   1_455  S
O1047     Zr1054   2.383       .  S
O1048     Zr3093   2.392   1_455  S
O1048     Zr1054   2.378       .  S
O1048      H1083   0.966       .  S
O1049     Zr2671   2.415       .  S
O1049     Zr1052   2.402       .  S
O1049     Zr1069   2.382       .  S
O1049      H1086   0.964       .  S
O1050     Zr3079   2.397       .  S
O1050     Zr1053   2.386   1_556  S
O1050     Zr1477   2.382       .  S
Zr1051     O1076   2.441       .  S
Zr1051     O1070   2.455       .  S
Zr1051     O1078   2.452       .  S
Zr1051     O1066   2.452       .  S
Zr1051     O1057   2.408       .  S
Zr1051     O1058   2.413       .  S
Zr1051     O1059   2.386       .  S
Zr1051     O1060   2.385       .  S
Zr1052     O1071   2.437       .  S
Zr1052     O1064   2.435       .  S
Zr1052     O2676   2.430       .  S
Zr1052     O1065   2.433       .  S
Zr1052     O2679   2.397       .  S
Zr1052     O1058   2.396       .  S
Zr1052     O1059   2.399       .  S
Zr1053     O1055   2.435       .  S
Zr1053     O2709   2.438       .  S
Zr1053     O2675   2.417       .  S
Zr1053     O1079   2.411       .  S
Zr1053     O3088   2.392   1_554  S
Zr1053     O1465   2.394   1_554  S
Zr1053     O1468   2.395   1_554  S
Zr1054     O1080   2.434       .  S
Zr1054     O1081   2.431   1_455  S
Zr1054     O1056   2.437       .  S
Zr1054     O2689   2.389   1_455  S
Zr1054     O2690   2.377   1_455  S
O1055      H1092   0.990       .  S
O1056      H1087   0.990       .  S
O1056      H1101   0.990       .  S
O1057     Zr1461   2.394       .  S
O1057     Zr2686   2.389       .  S
O1058     Zr2686   2.377       .  S
O1058      H1084   0.964       .  S
O1059     Zr1069   2.380       .  S
O1060     Zr1461   2.395       .  S
O1060     Zr1069   2.376       .  S
O1060      H1493   0.966       .  S
C1063      C1105   1.465       .  S
O1064      H2732   0.990       .  S
O1065      C1067   1.284       .  A
O1066      C1067   1.287       .  A
O1068     Zr1477   2.436   1_554  S
O1068      H1097   0.991       .  S
Zr1069     O1476   2.436       .  S
Zr1069     O1072   2.438       .  S
Zr1069     O1481   2.440       .  S
Zr1069     O1074   2.392       .  S
Zr1069     O1458   2.382       .  S
O1070      C1075   1.285       .  A
O1071      H1088   0.991       .  S
O1071      H1103   0.990       .  S
O1072      H1089   0.990       .  S
O1073     Zr1477   2.440   1_554  S
O1073      H1093   0.990       .  S
O1073      H1102   0.990       .  S
O1074      C1075   1.277       .  A
O1076      H1095   0.992       .  S
O1076      H1099   0.989       .  S
O1077     Zr2685   2.438   1_455  S
O1077      H1091   0.990       .  S
O1077      H1098   0.990       .  S
O1078      C1490   1.287       .  A
O1079      C1082   1.280       .  A
O1080      H1090   0.990       .  S
O1081      H2726   0.990       .  S
C1082      C1220   1.470       .  S
C1082      O1486   1.287   1_554  A
H1085      O1468   0.966   1_554  S
H1094      O2713   0.990       .  S
H1100      O2696   0.990       .  S
C1105      C1106   1.396       .  A
C1105      C1110   1.399       .  A
C1106      C1107   1.394       .  A
C1106      H1111   1.085       .  S
C1107      C1108   1.405       .  A
C1107      C1184   1.470       .  S
C1108      C1109   1.416       .  A
C1108      H1112   1.079       .  S
C1109      C1110   1.417       .  A
C1109      C1116   1.512       .  S
C1110      H1113   1.077       .  S
C1114      C1115   1.400       .  A
C1114      C1119   1.398       .  A
C1115      C1116   1.413       .  A
C1115      H1120   1.077       .  S
C1116      C1117   1.414       .  A
C1117      C1118   1.404       .  A
C1117      H1121   1.079       .  S
C1118      C1119   1.399       .  A
C1118      C1125   1.475       .  S
C1119      H1122   1.084       .  S
C1123      C1124   1.406       .  A
C1123      C1169   1.469       .  S
C1124      C1125   1.398       .  A
C1124      H1129   1.085       .  S
C1125      C1126   1.395       .  A
C1126      C1127   1.402       .  A
C1126      H1130   1.085       .  S
C1128      H1131   1.083   1_545  S
C1132      C1137   1.405       .  A
C1132      C1164   1.460       .  S
C1133      H1138   1.084       .  S
C1134      C1135   1.399       .  A
C1135      C1136   1.397       .  A
C1135      H1139   1.085       .  S
C1136      C1137   1.397       .  A
C1136      C1211   1.470       .  S
C1137      H1140   1.084       .  S
Zr1141     O1142   2.442       .  S
Zr1141     O1143   2.449       .  S
Zr1141     O1144   2.437       .  S
Zr1141     O1147   2.440       .  S
Zr1141     O1149   2.382       .  S
Zr1141     O1151   2.414       .  S
Zr1141     O1152   2.397       .  S
O1142      H1198   0.991       .  S
O1142      H1206   0.990       .  S
O1144      C1573   1.283       .  A
O1145     Zr1155   2.418       .  S
O1146     Zr1154   2.430       .  S
O1146      C1165   1.284       .  A
O1147      C1164   1.285       .  A
O1148     Zr1156   2.394       .  S
O1148      C1163   1.276       .  A
O1149     Zr1562   2.396       .  S
O1150     Zr1155   2.392       .  S
O1150     Zr1156   2.378       .  S
O1150      H1185   0.966       .  S
O1151     Zr1562   2.401       .  S
O1151     Zr2803   2.383       .  S
O1151      H1188   0.964       .  S
O1152     Zr2803   2.381       .  S
Zr1153     O1178   2.441       .  S
Zr1153     O1172   2.454       .  S
Zr1153     O1180   2.452       .  S
Zr1153     O1576   2.452       .  S
Zr1153     O2791   2.407   1_455  S
Zr1153     O3200   2.413   1_455  S
Zr1153     O1162   2.384       .  S
Zr1154     O2805   2.437       .  S
Zr1154     O1166   2.435       .  S
Zr1154     O2799   2.433       .  S
Zr1154     O1557   2.396       .  S
Zr1154     O1559   2.401   1_554  S
Zr1154     O3201   2.400   1_554  S
Zr1155     O1157   2.435       .  S
Zr1155     O1179   2.438       .  S
Zr1155     O2813   2.410       .  S
Zr1155     O1159   2.395       .  S
Zr1155     O2794   2.395       .  S
Zr1156     O1182   2.434       .  S
Zr1156     O1591   2.432       .  S
Zr1156     O1566   2.437       .  S
Zr1156     O1159   2.390       .  S
Zr1156     O1568   2.376       .  S
O1157      H1194   0.990       .  S
O1158     Zr1564   2.437   1_554  S
O1158      H1189   0.990       .  S
O1158      H1203   0.990       .  S
O1159     Zr2785   2.407       .  S
O1160     Zr3193   2.413       .  S
O1160     Zr1564   2.376       .  S
O1160      H1186   0.964   1_556  S
O1161     Zr3194   2.400   1_455  S
O1161     Zr1171   2.380       .  S
O1162     Zr2787   2.395   1_455  S
O1162      H1187   0.965       .  S
C1165      C1216   1.465       .  S
C1165      O1552   1.283   1_554  A
O1166      H1202   0.990   1_565  S
O1167     Zr2786   2.433   1_455  S
O1168     Zr1561   2.452   1_554  S
O1168      C1169   1.288       .  A
O1170     Zr2803   2.436       .  S
O1170      H2831   0.991       .  S
Zr1171     O2802   2.436   1_455  S
Zr1171     O1174   2.438       .  S
Zr1171     O1175   2.440       .  S
Zr1171     O1176   2.392       .  S
Zr1171     O2783   2.383   1_455  S
Zr1171     O2784   2.381   1_455  S
O1173     Zr2786   2.437   1_455  S
O1173      H1190   0.991       .  S
O1173      H1205   0.990       .  S
O1174      H1191   0.990       .  S
O1175      H1195   0.990       .  S
O1175      H1204   0.990   1_455  S
O1176      C1177   1.277       .  A
O1178      H1197   0.992       .  S
O1178      H1609   0.989       .  S
O1179      H1193   0.990       .  S
O1179      H1200   0.990       .  S
O1180      C1184   1.287       .  A
O1181     Zr2787   2.410       .  S
O1181      C1184   1.279   1_655  A
O1182      H1192   0.990       .  S
O1183     Zr1564   2.432   1_554  S
O1183      H1196   0.990   1_554  S
H1199      O2802   0.991   1_455  S
H1201      O1586   0.989       .  S
C1207      C1208   1.404       .  A
C1207      C1212   1.399       .  A
C1208      C1209   1.414       .  A
C1208      H1213   1.079       .  S
C1209      C1210   1.412       .  A
C1209      C1218   1.511       .  S
C1210      C1211   1.400       .  A
C1210      H1214   1.077       .  S
C1211      C1212   1.398       .  A
C1212      H1215   1.084       .  S
C1216      C1217   1.398       .  A
C1216      C1629   1.396       .  A
C1217      C1218   1.416       .  A
C1217      H1222   1.077       .  S
C1218      C1219   1.416       .  A
C1219      C1220   1.404       .  A
C1219      H1223   1.079       .  S
C1220      C1629   1.395       .  A
C1221      C1624   1.396       .  A
C1221      C1628   1.395       .  A
C1221      H1224   1.085       .  S
C1225      C1226   1.405       .  A
C1225      C1230   1.406       .  A
C1225      C1266   1.460       .  S
C1226      C1227   1.397       .  A
C1226      H1231   1.084       .  S
C1227      C1228   1.396       .  A
C1227      C1309   1.470       .  S
C1228      C1229   1.399       .  A
C1228      H1232   1.085       .  S
C1229      C1230   1.403       .  A
C1229      C1469   1.466       .  S
C1230      H1233   1.084       .  S
C1234      C1235   1.409       .  A
C1234      C1271   1.469       .  S
C1235      H1240   1.083       .  S
C1236      C1237   1.402       .  A
C1236      C1483   1.469       .  S
C1237      C1238   1.395       .  A
C1237      H1241   1.085       .  S
C1238      C1239   1.398   1_556  A
C1238      C1422   1.475       .  S
Zr1243     O1244   2.443       .  S
Zr1243     O1245   2.449       .  S
Zr1243     O1246   2.437       .  S
Zr1243     O1249   2.442       .  S
Zr1243     O1251   2.382       .  S
Zr1243     O1252   2.387       .  S
Zr1243     O1253   2.415       .  S
Zr1243     O1254   2.397       .  S
O1244      H1300   0.991       .  S
O1244      H1308   0.990       .  S
O1245      C1265   1.284       .  A
O1246      C1267   1.283       .  A
O1247     Zr1257   2.416       .  S
O1247      C1266   1.280       .  A
O1248     Zr1256   2.430       .  S
O1248      C1267   1.284       .  A
O1249      C1266   1.285       .  A
O1250     Zr1258   2.394       .  S
O1250      C1265   1.277       .  A
O1251     Zr1256   2.397       .  S
O1251     Zr1258   2.383       .  S
O1252     Zr1257   2.392       .  S
O1252     Zr1258   2.378       .  S
O1252      H1287   0.966       .  S
O1253     Zr1256   2.402       .  S
O1253     Zr1273   2.382       .  S
O1253      H1290   0.964       .  S
O1254     Zr1257   2.386       .  S
O1254     Zr1273   2.382       .  S
Zr1255     O1280   2.441       .  S
Zr1255     O1274   2.454       .  S
Zr1255     O1282   2.454       .  S
Zr1255     O1270   2.453       .  S
Zr1255     O1261   2.407       .  S
Zr1255     O1262   2.414       .  S
Zr1255     O1263   2.386       .  S
Zr1255     O1264   2.384       .  S
Zr1256     O1275   2.436       .  S
Zr1256     O1268   2.435       .  S
Zr1256     O1269   2.434       .  S
Zr1256     O1262   2.396       .  S
Zr1256     O1263   2.399       .  S
Zr1257     O1259   2.435       .  S
Zr1257     O1281   2.438       .  S
Zr1257     O1283   2.410       .  S
Zr1257     O1261   2.395       .  S
Zr1257     O1264   2.395       .  S
Zr1258     O1284   2.434       .  S
Zr1258     O1285   2.432       .  S
Zr1258     O1260   2.437       .  S
Zr1258     O1261   2.389       .  S
Zr1258     O1262   2.377       .  S
O1259      H1296   0.990       .  S
O1260      H1291   0.990       .  S
O1260      H1305   0.990       .  S
O1262      H1288   0.964       .  S
O1263     Zr1273   2.380       .  S
O1264     Zr1273   2.376       .  S
O1264      H1289   0.966       .  S
C1265      C1431   1.465       .  S
C1267      C1318   1.465       .  S
O1268      H1304   0.990       .  S
O1269      C1271   1.284       .  A
O1270      C1271   1.288       .  A
O1272     Zr1273   2.436       .  S
O1272      H1301   0.991       .  S
Zr1273     O1276   2.438       .  S
Zr1273     O1277   2.440       .  S
Zr1273     O1278   2.393       .  S
O1274      C1279   1.285       .  A
O1275      H1292   0.991       .  S
O1275      H1307   0.990       .  S
O1276      H1293   0.990       .  S
O1277      H1297   0.990       .  S
O1277      H1306   0.990       .  S
O1278      C1279   1.277       .  A
C1279      C1442   1.469       .  S
O1280      H1299   0.992       .  S
O1280      H1303   0.989       .  S
O1281      H1295   0.990       .  S
O1281      H1302   0.990       .  S
O1282      C1286   1.287       .  A
O1283      C1286   1.279       .  A
O1284      H1294   0.990       .  S
O1285      H1298   0.990       .  S
C1286      C1415   1.470       .  S
C1309      C1310   1.399       .  A
C1309      C1314   1.397       .  A
C1310      H1315   1.077       .  S
C1311      C1320   1.511       .  S
C1312      C1313   1.404       .  A
C1312      H1316   1.079       .  S
C1313      C1314   1.399       .  A
C1313      C1331   1.475       .  S
C1314      H1317   1.084       .  S
C1318      C1319   1.398       .  A
C1318      C1323   1.396       .  A
C1319      C1320   1.416       .  A
C1319      H1324   1.077       .  S
C1320      C1321   1.416       .  A
C1321      C1322   1.405       .  A
C1321      H1325   1.079       .  S
C1322      C1323   1.395       .  A
C1322      C1388   1.470       .  S
C1323      H1326   1.085       .  S
C1327      C1332   1.405       .  A
C1327      C1373   1.469       .  S
C1328      H1333   1.083       .  S
C1329      C1330   1.402       .  A
C1329      C1585   1.469       .  S
C1330      C1331   1.395       .  A
C1330      H1334   1.085       .  S
C1331      C1332   1.398       .  A
C1332      H1335   1.085       .  S
C1336      C1368   1.460       .  S
C1337      C1338   1.397   1_554  A
C1338      C1339   1.397       .  A
C1338      C1420   1.470       .  S
C1339      C1340   1.399   1_556  A
C1339      H1343   1.085       .  S
C1340      C1571   1.465   1_554  S
C1341      H1344   1.084       .  S
Zr1345     O1346   2.443       .  S
Zr1345     O1347   2.450       .  S
Zr1345     O1348   2.437       .  S
Zr1345     O1351   2.440       .  S
Zr1345     O1353   2.382       .  S
Zr1345     O1355   2.415       .  S
Zr1345     O1356   2.398       .  S
O1346      H1402   0.991       .  S
O1346      H1410   0.990       .  S
O1348      C1369   1.282       .  A
O1349     Zr1359   2.417       .  S
O1350     Zr1358   2.430       .  S
O1350      C1369   1.284       .  A
O1351      C1368   1.285       .  A
O1352     Zr1360   2.393       .  S
O1352      C1367   1.276       .  A
O1353     Zr1358   2.397       .  S
O1354     Zr1359   2.392       .  S
O1354     Zr1360   2.378       .  S
O1354      H1389   0.966       .  S
O1355     Zr1358   2.402       .  S
O1355     Zr1375   2.383       .  S
O1355      H1392   0.964       .  S
O1356     Zr1375   2.382       .  S
Zr1357     O1382   2.441       .  S
Zr1357     O1376   2.454       .  S
Zr1357     O1384   2.452       .  S
Zr1357     O1372   2.452       .  S
Zr1357     O1363   2.407       .  S
Zr1357     O1364   2.413       .  S
Zr1357     O1366   2.384       .  S
Zr1358     O1377   2.437       .  S
Zr1358     O1370   2.434       .  S
Zr1358     O1371   2.433       .  S
Zr1358     O1365   2.399       .  S
Zr1359     O1361   2.435       .  S
Zr1359     O1383   2.438       .  S
Zr1359     O1385   2.410       .  S
Zr1359     O1363   2.395       .  S
Zr1359     O1366   2.395       .  S
Zr1360     O1386   2.434       .  S
Zr1360     O1387   2.431       .  S
Zr1360     O1362   2.437       .  S
Zr1360     O1363   2.389       .  S
Zr1360     O1364   2.376       .  S
O1361      H1398   0.990       .  S
O1362      H1393   0.990       .  S
O1362      H1407   0.990       .  S
O1364      H1390   0.964       .  S
O1365     Zr1375   2.380       .  S
O1366      H1391   0.966       .  S
C1367      C1542   1.465       .  S
C1369      C1411   1.464       .  S
O1370      H1406   0.990       .  S
O1372      C1373   1.287       .  A
O1374     Zr1375   2.436       .  S
O1374      H1403   0.991       .  S
Zr1375     O1378   2.438       .  S
Zr1375     O1379   2.440       .  S
Zr1375     O1380   2.394       .  S
O1377      H1394   0.991       .  S
O1377      H1409   0.990       .  S
O1378      H1395   0.990       .  S
O1379      H1399   0.990       .  S
O1379      H1408   0.990       .  S
O1380      C1381   1.277       .  A
C1381      C1535   1.470       .  S
O1382      H1401   0.992       .  S
O1382      H1405   0.989       .  S
O1383      H1397   0.990       .  S
O1383      H1404   0.990       .  S
O1384      C1388   1.287       .  A
O1385      C1388   1.279       .  A
O1386      H1396   0.990       .  S
O1387      H1400   0.990       .  S
C1411      C1412   1.398       .  A
C1411      C1416   1.396       .  A
C1412      C1413   1.416       .  A
C1412      H1417   1.077       .  S
C1413      C1414   1.416       .  A
C1413      C1424   1.512       .  S
C1414      C1415   1.405       .  A
C1414      H1418   1.079       .  S
C1415      C1416   1.394       .  A
C1416      H1419   1.085       .  S
C1420      C1421   1.397       .  A
C1420      C1425   1.400       .  A
C1421      C1422   1.399       .  A
C1422      C1423   1.404       .  A
C1423      C1424   1.414       .  A
C1423      H1427   1.079       .  S
C1424      C1425   1.413       .  A
C1425      H1428   1.077       .  S
C1429      C1430   1.406       .  A
C1429      C1434   1.406       .  A
C1429      C1470   1.460       .  S
C1430      C1431   1.403       .  A
C1430      H1435   1.084       .  S
C1431      C1432   1.399       .  A
C1432      C1433   1.396       .  A
C1432      H1436   1.085       .  S
C1433      C1434   1.397       .  A
C1433      C1522   1.470       .  S
C1434      H1437   1.084       .  S
C1438      C1439   1.405       .  A
C1438      C1443   1.409       .  A
C1438      C1475   1.469       .  S
C1439      C1440   1.398       .  A
C1439      H1444   1.084       .  S
C1440      C1441   1.395       .  A
C1440      C1615   1.474       .  S
C1441      C1442   1.402       .  A
C1441      H1445   1.085       .  S
C1442      C1443   1.408       .  A
C1443      H1446   1.083       .  S
Zr1447     O1448   2.443       .  S
Zr1447     O1449   2.450       .  S
Zr1447     O1450   2.438       .  S
Zr1447     O1455   2.382       .  S
Zr1447     O1456   2.387       .  S
Zr1447     O3089   2.415   1_455  S
Zr1447     O2682   2.397   1_455  S
O1448      H1504   0.991       .  S
O1448      H1512   0.990       .  S
O1449      C1469   1.284       .  A
O1450      C1471   1.283       .  A
O1451     Zr3093   2.417   1_455  S
O1451      C1470   1.280       .  A
O1452     Zr3092   2.430   1_455  S
O1452      C1471   1.284       .  A
O1453      C1470   1.285       .  A
O1454     Zr1462   2.394       .  S
O1454      C1469   1.277       .  A
O1455     Zr3092   2.397   1_455  S
O1455     Zr1462   2.383       .  S
O1456     Zr2685   2.392   1_456  S
O1456     Zr1462   2.378       .  S
O1456      H1491   0.966       .  S
O1457     Zr3079   2.415       .  S
O1457     Zr1460   2.402       .  S
O1457     Zr1477   2.382       .  S
O1457      H1494   0.964       .  S
O1458     Zr2671   2.397       .  S
O1458     Zr1461   2.386       .  S
Zr1459     O1484   2.441       .  S
Zr1459     O1478   2.455       .  S
Zr1459     O1486   2.452       .  S
Zr1459     O1474   2.452       .  S
Zr1459     O1465   2.408       .  S
Zr1459     O1466   2.413       .  S
Zr1459     O1467   2.386       .  S
Zr1459     O1468   2.385       .  S
Zr1460     O1479   2.437       .  S
Zr1460     O1472   2.435       .  S
Zr1460     O3084   2.430       .  S
Zr1460     O1473   2.433       .  S
Zr1460     O3087   2.397       .  S
Zr1460     O1466   2.396       .  S
Zr1460     O1467   2.399       .  S
Zr1461     O1463   2.435       .  S
Zr1461     O3117   2.438       .  S
Zr1461     O3083   2.417       .  S
Zr1461     O1487   2.411       .  S
Zr1461     O2680   2.392       .  S
Zr1462     O1488   2.434       .  S
Zr1462     O1489   2.431   1_455  S
Zr1462     O1464   2.437       .  S
Zr1462     O3097   2.389   1_455  S
Zr1462     O3098   2.377   1_455  S
O1463      H1500   0.990       .  S
O1464      H1495   0.990       .  S
O1464      H1509   0.990       .  S
O1465     Zr3094   2.389       .  S
O1466     Zr3094   2.377       .  S
O1466      H1492   0.964       .  S
O1467     Zr1477   2.380       .  S
O1468     Zr1477   2.376       .  S
C1471      C1513   1.465       .  S
O1472      H3140   0.990       .  S
O1473      C1475   1.284       .  A
O1474      C1475   1.287       .  A
O1476      H1505   0.991       .  S
Zr1477     O1480   2.438       .  S
Zr1477     O1482   2.392       .  S
O1478      C1483   1.285       .  A
O1479      H1496   0.991       .  S
O1479      H1511   0.990       .  S
O1480      H1497   0.990       .  S
O1481      H1501   0.990       .  S
O1481      H1510   0.990       .  S
O1482      C1483   1.277       .  A
O1484      H1503   0.992       .  S
O1484      H1507   0.989       .  S
O1485     Zr3093   2.438   1_455  S
O1485      H1499   0.990       .  S
O1485      H1506   0.990       .  S
O1487      C1490   1.280       .  A
O1488      H1498   0.990       .  S
O1489      H3134   0.990       .  S
C1490      C1628   1.470       .  S
H1502      O3121   0.990       .  S
H1508      O3104   0.990       .  S
C1513      C1514   1.396       .  A
C1513      C1518   1.399       .  A
C1514      C1515   1.394       .  A
C1514      H1519   1.085       .  S
C1515      C1516   1.405       .  A
C1515      C1592   1.470       .  S
C1516      C1517   1.416       .  A
C1516      H1520   1.079       .  S
C1517      C1518   1.417       .  A
C1517      C1524   1.512       .  S
C1518      H1521   1.077       .  S
C1522      C1523   1.400       .  A
C1522      C1527   1.398       .  A
C1523      C1524   1.413       .  A
C1523      H1528   1.077       .  S
C1524      C1525   1.414       .  A
C1525      C1526   1.404       .  A
C1525      H1529   1.079       .  S
C1526      C1527   1.399       .  A
C1526      C1533   1.475       .  S
C1527      H1530   1.084       .  S
C1531      C1532   1.406       .  A
C1531      C1577   1.469       .  S
C1532      C1533   1.398       .  A
C1532      H1537   1.085       .  S
C1533      C1534   1.395       .  A
C1534      C1535   1.402       .  A
C1534      H1538   1.085       .  S
C1536      H1539   1.083   1_545  S
C1540      C1545   1.405       .  A
C1540      C1572   1.460       .  S
C1541      H1546   1.084       .  S
C1542      C1543   1.399       .  A
C1543      C1544   1.397       .  A
C1543      H1547   1.085       .  S
C1544      C1545   1.397       .  A
C1544      C1619   1.470       .  S
C1545      H1548   1.084       .  S
Zr1549     O1550   2.442       .  S
Zr1549     O1551   2.449       .  S
Zr1549     O1552   2.437       .  S
Zr1549     O1555   2.440       .  S
Zr1549     O1557   2.382   1_556  S
Zr1549     O1559   2.414       .  S
Zr1549     O1560   2.397       .  S
O1550      H1606   0.991       .  S
O1550      H1614   0.990       .  S
O1553     Zr1563   2.418       .  S
O1554     Zr1562   2.430       .  S
O1554      C1573   1.284       .  A
O1555      C1572   1.285       .  A
O1556     Zr1564   2.394       .  S
O1556      C1571   1.276       .  A
O1558     Zr1563   2.392       .  S
O1558     Zr1564   2.378       .  S
O1558      H1593   0.966       .  S
O1559     Zr3211   2.383       .  S
O1559      H1596   0.964       .  S
O1560     Zr3211   2.381       .  S
Zr1561     O1586   2.441       .  S
Zr1561     O1580   2.454       .  S
Zr1561     O1588   2.452       .  S
Zr1561     O3199   2.407   1_455  S
Zr1561     O2792   2.413   1_455  S
Zr1561     O1570   2.384       .  S
Zr1562     O3213   2.437       .  S
Zr1562     O1574   2.435       .  S
Zr1562     O3207   2.433       .  S
Zr1562     O2793   2.400       .  S
Zr1563     O1565   2.435       .  S
Zr1563     O1587   2.438       .  S
Zr1563     O3221   2.410       .  S
Zr1563     O1567   2.395       .  S
Zr1563     O3202   2.395       .  S
Zr1564     O1590   2.434       .  S
Zr1564     O1567   2.390       .  S
O1565      H1602   0.990       .  S
O1566      H1597   0.990       .  S
O1566      H1611   0.990       .  S
O1567     Zr3193   2.407       .  S
O1568     Zr2785   2.413       .  S
O1568      H1594   0.964       .  S
O1569     Zr2786   2.400   1_456  S
O1569     Zr1579   2.380       .  S
O1570     Zr3195   2.395   1_455  S
O1570      H1595   0.965       .  S
C1573      C1624   1.465       .  S
O1574      H1610   0.990   1_565  S
O1575     Zr3194   2.433   1_455  S
O1576      C1577   1.288       .  A
O1578     Zr3211   2.436       .  S
O1578      H3239   0.991       .  S
Zr1579     O3210   2.436   1_455  S
Zr1579     O1582   2.438       .  S
Zr1579     O1583   2.440       .  S
Zr1579     O1584   2.392       .  S
Zr1579     O3191   2.383   1_455  S
Zr1579     O3192   2.381   1_455  S
O1581     Zr3194   2.437   1_455  S
O1581      H1598   0.991       .  S
O1581      H1613   0.990       .  S
O1582      H1599   0.990       .  S
O1583      H1603   0.990       .  S
O1583      H1612   0.990   1_455  S
O1584      C1585   1.277       .  A
O1586      H1605   0.992       .  S
O1587      H1601   0.990       .  S
O1587      H1608   0.990       .  S
O1588      C1592   1.287       .  A
O1589     Zr3195   2.410       .  S
O1589      C1592   1.279   1_655  A
O1590      H1600   0.990       .  S
O1591      H1604   0.990       .  S
H1607      O3210   0.991   1_455  S
C1615      C1616   1.404       .  A
C1615      C1620   1.399       .  A
C1616      C1617   1.414       .  A
C1616      H1621   1.079       .  S
C1617      C1618   1.412       .  A
C1617      C1626   1.511       .  S
C1618      C1619   1.400       .  A
C1618      H1622   1.077       .  S
C1619      C1620   1.398       .  A
C1620      H1623   1.084       .  S
C1624      C1625   1.398       .  A
C1625      C1626   1.416       .  A
C1625      H1630   1.077       .  S
C1626      C1627   1.416       .  A
C1627      C1628   1.404       .  A
C1627      H1631   1.079       .  S
C1629      H1632   1.085   1_554  S
C1633      C1634   1.405       .  A
C1633      C1638   1.406       .  A
C1633      C1674   1.460       .  S
C1634      C1635   1.397       .  A
C1634      H1639   1.084       .  S
C1635      C1636   1.396       .  A
C1635      C1717   1.470       .  S
C1636      C1637   1.399       .  A
C1636      H1640   1.085       .  S
C1637      C1638   1.403       .  A
C1637      C1877   1.466       .  S
C1638      H1641   1.084       .  S
C1642      C1643   1.409       .  A
C1642      C2055   1.406       .  A
C1642      C1679   1.469       .  S
C1643      C2052   1.408   1_554  A
C1643      H1648   1.083       .  S
C1644      C2051   1.408       .  A
C1644      C1645   1.402       .  A
C1644      C1891   1.469       .  S
C1645      C1646   1.395       .  A
C1645      H1649   1.085       .  S
C1646      C1647   1.398       .  A
C1646      C1830   1.475       .  S
C1647      C2050   1.406       .  A
C1647      H2058   1.084       .  S
H1650      C2055   1.084       .  S
Zr1651     O1652   2.443       .  S
Zr1651     O1653   2.449       .  S
Zr1651     O1654   2.437       .  S
Zr1651     O1657   2.442       .  S
Zr1651     O1659   2.382       .  S
Zr1651     O1660   2.387       .  S
Zr1651     O1661   2.415       .  S
Zr1651     O1662   2.397       .  S
O1652      H1708   0.991       .  S
O1652      H1716   0.990       .  S
O1653      C1673   1.284       .  A
O1654      C1675   1.283       .  A
O1655     Zr1665   2.416       .  S
O1655      C1674   1.280       .  A
O1656     Zr1664   2.430       .  S
O1656      C1675   1.284       .  A
O1657      C1674   1.285       .  A
O1658     Zr1666   2.394       .  S
O1658      C1673   1.277       .  A
O1659     Zr1664   2.397       .  S
O1659     Zr1666   2.383       .  S
O1660     Zr1665   2.392       .  S
O1660     Zr1666   2.378       .  S
O1660      H1695   0.966       .  S
O1661     Zr1664   2.402       .  S
O1661     Zr1681   2.382       .  S
O1661      H1698   0.964       .  S
O1662     Zr1665   2.386       .  S
O1662     Zr1681   2.382       .  S
Zr1663     O1688   2.441       .  S
Zr1663     O1682   2.454       .  S
Zr1663     O1690   2.454       .  S
Zr1663     O1678   2.453       .  S
Zr1663     O1669   2.407       .  S
Zr1663     O1670   2.414       .  S
Zr1663     O1671   2.386       .  S
Zr1663     O1672   2.384       .  S
Zr1664     O1683   2.436       .  S
Zr1664     O1676   2.435       .  S
Zr1664     O1677   2.434       .  S
Zr1664     O1670   2.396       .  S
Zr1664     O1671   2.399       .  S
Zr1665     O1667   2.435       .  S
Zr1665     O1689   2.438       .  S
Zr1665     O1691   2.410       .  S
Zr1665     O1669   2.395       .  S
Zr1665     O1672   2.395       .  S
Zr1666     O1692   2.434       .  S
Zr1666     O1693   2.432       .  S
Zr1666     O1668   2.437       .  S
Zr1666     O1669   2.389       .  S
Zr1666     O1670   2.377       .  S
O1667      H1704   0.990       .  S
O1668      H1699   0.990       .  S
O1668      H1713   0.990       .  S
O1670      H1696   0.964       .  S
O1671     Zr1681   2.380       .  S
O1672     Zr1681   2.376       .  S
O1672      H1697   0.966       .  S
C1673      C1839   1.465       .  S
C1675      C1726   1.465       .  S
O1676      H1712   0.990       .  S
O1677      C1679   1.284       .  A
O1678      C1679   1.288       .  A
O1680     Zr1681   2.436       .  S
O1680      H1709   0.991       .  S
Zr1681     O1684   2.438       .  S
Zr1681     O1685   2.440       .  S
Zr1681     O1686   2.393       .  S
O1682      C1687   1.285       .  A
O1683      H1700   0.991       .  S
O1683      H1715   0.990       .  S
O1684      H1701   0.990       .  S
O1685      H1705   0.990       .  S
O1685      H1714   0.990       .  S
O1686      C1687   1.277       .  A
C1687      C1850   1.469       .  S
O1688      H1707   0.992       .  S
O1688      H1711   0.989       .  S
O1689      H1703   0.990       .  S
O1689      H1710   0.990       .  S
O1690      C1694   1.287       .  A
O1691      C1694   1.279       .  A
O1692      H1702   0.990       .  S
O1693      H1706   0.990       .  S
C1694      C1823   1.470       .  S
C1717      C1718   1.399       .  A
C1717      C1722   1.397       .  A
C1718      C2127   1.412       .  A
C1718      H1723   1.077       .  S
C1719      C2126   1.412       .  A
C1719      C2128   1.414       .  A
C1719      C1728   1.511   1_556  S
C1720      C2127   1.414       .  A
C1720      C1721   1.404       .  A
C1720      H1724   1.079       .  S
C1721      C1722   1.399       .  A
C1721      C1739   1.475       .  S
C1722      H1725   1.084       .  S
C1726      C1727   1.398       .  A
C1726      C1731   1.396       .  A
C1727      C1728   1.416       .  A
C1727      H1732   1.077       .  S
C1728      C1729   1.416       .  A
C1729      C1730   1.405       .  A
C1729      H1733   1.079       .  S
C1730      C1731   1.395       .  A
C1730      C1796   1.470       .  S
C1731      H1734   1.085       .  S
C1735      C2552   1.409       .  A
C1735      C1740   1.405       .  A
C1735      C1781   1.469       .  S
C1736      C2551   1.409       .  A
C1736      C2553   1.408       .  A
C1736      H1741   1.083       .  S
C1737      C2552   1.408       .  A
C1737      C1738   1.402       .  A
C1737      C1993   1.469       .  S
C1738      C1739   1.395       .  A
C1738      H1742   1.085       .  S
C1739      C1740   1.398       .  A
C1740      H1743   1.085       .  S
C1744      C2153   1.405       .  A
C1744      C2565   1.406       .  A
C1744      C1776   1.460       .  S
C1745      C2152   1.405       .  A
C1745      C1746   1.397       .  A
C1745      H2158   1.084       .  S
C1746      C1747   1.397       .  A
C1746      C1828   1.470       .  S
C1747      C1748   1.399       .  A
C1747      H1751   1.085       .  S
C1748      C2973   1.402       .  A
C1748      C1979   1.465       .  S
C1749      C2560   1.406       .  A
C1749      C2972   1.402       .  A
C1749      H1752   1.084       .  S
H1750      C2153   1.084       .  S
Zr1753     O1754   2.443       .  S
Zr1753     O1755   2.450   1_545  S
Zr1753     O1756   2.437       .  S
Zr1753     O1759   2.440       .  S
Zr1753     O1761   2.382   1_545  S
Zr1753     O2578   2.387   1_545  S
Zr1753     O1763   2.415       .  S
Zr1753     O1764   2.398       .  S
O1754      H1810   0.991       .  S
O1754      H1818   0.990       .  S
O1755      C2591   1.284       .  A
O1756      C1777   1.282       .  A
O1757     Zr1767   2.417       .  S
O1757      C2592   1.280       .  A
O1758     Zr1766   2.430       .  S
O1758      C1777   1.284       .  A
O1759      C1776   1.285       .  A
O1760     Zr1768   2.393       .  S
O1760      C1775   1.276       .  A
O1761     Zr1766   2.397   1_565  S
O1761     Zr2584   2.383       .  S
O1762     Zr2569   2.387       .  S
O1762     Zr1767   2.392       .  S
O1762     Zr1768   2.378       .  S
O1762      H1797   0.966       .  S
O1763     Zr1766   2.402       .  S
O1763     Zr1783   2.383       .  S
O1763      H1800   0.964       .  S
O1764     Zr2583   2.386   1_545  S
O1764     Zr1783   2.382       .  S
Zr1765     O1790   2.441       .  S
Zr1765     O1784   2.454       .  S
Zr1765     O1792   2.452       .  S
Zr1765     O1780   2.452       .  S
Zr1765     O1771   2.407       .  S
Zr1765     O1772   2.413       .  S
Zr1765     O2589   2.387       .  S
Zr1765     O1774   2.384       .  S
Zr1766     O1785   2.437       .  S
Zr1766     O1778   2.434       .  S
Zr1766     O1779   2.433   1_545  S
Zr1766     O2588   2.396   1_545  S
Zr1766     O1773   2.399       .  S
Zr1767     O1769   2.435       .  S
Zr1767     O1791   2.438       .  S
Zr1767     O1793   2.410       .  S
Zr1767     O2580   2.386       .  S
Zr1767     O1771   2.395       .  S
Zr1767     O1774   2.395       .  S
Zr1768     O1794   2.434       .  S
Zr1768     O1795   2.431       .  S
Zr1768     O1770   2.437       .  S
Zr1768     O2577   2.383       .  S
Zr1768     O1771   2.389       .  S
Zr1768     O1772   2.376       .  S
O1769      H1806   0.990       .  S
O1770      H1801   0.990       .  S
O1770      H1815   0.990       .  S
O1772     Zr2582   2.396       .  S
O1772      H1798   0.964       .  S
O1773     Zr2581   2.387   1_545  S
O1773     Zr1783   2.380       .  S
O1774     Zr2599   2.375       .  S
O1774      H1799   0.966       .  S
C1775      C1950   1.465       .  S
C1775      O2571   1.284       .  A
C1776      O2573   1.280   1_545  A
C1777      C1819   1.464       .  S
O1778      H1814   0.990   1_545  S
O1779      C2597   1.284       .  A
O1780      C1781   1.287       .  A
C1781      O2595   1.284       .  A
O1782     Zr1783   2.436       .  S
O1782      H1811   0.991       .  S
Zr1783     O1786   2.438       .  S
Zr1783     O1787   2.440       .  S
Zr1783     O1788   2.394       .  S
Zr1783     O2590   2.375   1_545  S
O1784      C2605   1.285       .  A
O1785      H1802   0.991       .  S
O1785      H1817   0.990       .  S
O1786      H1803   0.990       .  S
O1787      H1807   0.990       .  S
O1787      H1816   0.990       .  S
O1788      C1789   1.277       .  A
C1789      C1943   1.470       .  S
C1789      O2600   1.285   1_545  A
O1790      H1809   0.992       .  S
O1790      H1813   0.989       .  S
O1791      H1805   0.990       .  S
O1791      H1812   0.990       .  S
O1792      C1796   1.287       .  A
O1793      C1796   1.279       .  A
O1794      H1804   0.990       .  S
O1795      H1808   0.990       .  S
C1819      C1820   1.398       .  A
C1819      C1824   1.396       .  A
C1820      C1821   1.416       .  A
C1820      H1825   1.077       .  S
C1821      C1822   1.416       .  A
C1821      C1832   1.512       .  S
C1822      C1823   1.405       .  A
C1822      H1826   1.079       .  S
C1823      C1824   1.394       .  A
C1824      H1827   1.085       .  S
C1828      C1829   1.397       .  A
C1828      C1833   1.400       .  A
C1829      C1830   1.399       .  A
C1829      H2242   1.084       .  S
C1830      C1831   1.404       .  A
C1831      C1832   1.414       .  A
C1831      H1835   1.079       .  S
C1832      C1833   1.413       .  A
C1833      H1836   1.077       .  S
H1834      C2237   1.084   1_554  S
C1837      C1838   1.406       .  A
C1837      C1842   1.406       .  A
C1837      C1878   1.460       .  S
C1838      C1839   1.403       .  A
C1838      H1843   1.084       .  S
C1839      C1840   1.399       .  A
C1840      C1841   1.396       .  A
C1840      H1844   1.085       .  S
C1841      C1842   1.397       .  A
C1841      C1930   1.470       .  S
C1842      H1845   1.084       .  S
C1846      C1847   1.405       .  A
C1846      C1851   1.409       .  A
C1846      C1883   1.469       .  S
C1847      C1848   1.398       .  A
C1847      H1852   1.084       .  S
C1848      C1849   1.395       .  A
C1848      C2023   1.474       .  S
C1849      C1850   1.402       .  A
C1849      H1853   1.085       .  S
C1850      C1851   1.408       .  A
C1851      H1854   1.083       .  S
Zr1855     O1856   2.443       .  S
Zr1855     O1857   2.450       .  S
Zr1855     O1858   2.438       .  S
Zr1855     O2269   2.442       .  S
Zr1855     O1863   2.382       .  S
Zr1855     O1864   2.387       .  S
O1856      H1912   0.991       .  S
O1856      H1920   0.990       .  S
O1857      C1877   1.284       .  A
O1858      C1879   1.283       .  A
O1859      C1878   1.280       .  A
O1860      C1879   1.284       .  A
O1861     Zr2263   2.442   1_554  S
O1861      C1878   1.285       .  A
O1862     Zr1870   2.394       .  S
O1862      C1877   1.277       .  A
O1863     Zr1870   2.383       .  S
O1864     Zr1870   2.378       .  S
O1864      H1899   0.966       .  S
O1865     Zr1868   2.402       .  S
O1865     Zr1885   2.382       .  S
O1865      H1902   0.964       .  S
O1866     Zr1869   2.386   1_556  S
O1866     Zr2293   2.382       .  S
Zr1867     O1892   2.441       .  S
Zr1867     O1886   2.455       .  S
Zr1867     O1894   2.452       .  S
Zr1867     O1882   2.452       .  S
Zr1867     O1873   2.408       .  S
Zr1867     O1874   2.413       .  S
Zr1867     O1875   2.386       .  S
Zr1867     O1876   2.385       .  S
Zr1868     O1887   2.437       .  S
Zr1868     O1880   2.435       .  S
Zr1868     O1881   2.433       .  S
Zr1868     O1874   2.396       .  S
Zr1868     O1875   2.399       .  S
Zr1869     O1871   2.435       .  S
Zr1869     O1895   2.411       .  S
Zr1869     O2281   2.394   1_554  S
Zr1869     O2284   2.395   1_554  S
Zr1870     O1896   2.434       .  S
Zr1870     O1897   2.431       .  S
Zr1870     O1872   2.437       .  S
O1871      H1908   0.990       .  S
O1872      H1903   0.990       .  S
O1872      H1917   0.990       .  S
O1873     Zr2277   2.394       .  S
O1874      H1900   0.964       .  S
O1875     Zr1885   2.380       .  S
O1876     Zr2277   2.395       .  S
O1876     Zr1885   2.376       .  S
O1876      H2309   0.966       .  S
C1879      C1921   1.465       .  S
O1881      C1883   1.284       .  A
O1882      C1883   1.287       .  A
O1884     Zr2293   2.436   1_554  S
O1884      H1913   0.991       .  S
Zr1885     O2292   2.436       .  S
Zr1885     O1888   2.438       .  S
Zr1885     O2297   2.440       .  S
Zr1885     O1890   2.392       .  S
Zr1885     O2274   2.382       .  S
O1886      C1891   1.285       .  A
O1887      H1904   0.991       .  S
O1887      H1919   0.990       .  S
O1888      H1905   0.990       .  S
O1889     Zr2293   2.440   1_554  S
O1889      H1909   0.990       .  S
O1889      H1918   0.990       .  S
O1890      C1891   1.277       .  A
O1892      H1911   0.992       .  S
O1892      H1915   0.989       .  S
O1893      H1907   0.990       .  S
O1893      H1914   0.990       .  S
O1894      C2306   1.287       .  A
O1895      C1898   1.280       .  A
O1896      H1906   0.990       .  S
C1898      C2036   1.470       .  S
C1898      O2302   1.287   1_554  A
H1901      O2284   0.966   1_554  S
C1921      C1922   1.396       .  A
C1921      C1926   1.399       .  A
C1922      C1923   1.394       .  A
C1922      H1927   1.085       .  S
C1923      C1924   1.405       .  A
C1923      C2000   1.470       .  S
C1924      C1925   1.416       .  A
C1924      H1928   1.079       .  S
C1925      C1926   1.417       .  A
C1925      C1932   1.512       .  S
C1926      H1929   1.077       .  S
C1930      C1931   1.400       .  A
C1930      C1935   1.398       .  A
C1931      C1932   1.413       .  A
C1931      H1936   1.077       .  S
C1932      C1933   1.414       .  A
C1933      C1934   1.404       .  A
C1933      H1937   1.079       .  S
C1934      C1935   1.399       .  A
C1934      C1941   1.475       .  S
C1935      H1938   1.084       .  S
C1939      C1940   1.406       .  A
C1939      C2760   1.409       .  A
C1939      C1985   1.469       .  S
C1940      C1941   1.398       .  A
C1940      H1945   1.085       .  S
C1941      C1942   1.395       .  A
C1942      C1943   1.402       .  A
C1942      H1946   1.085       .  S
C1943      C2760   1.408       .  A
C1944      C2755   1.409       .  A
C1944      C2759   1.408       .  A
C1944      H1947   1.083       .  S
C1948      C2765   1.406       .  A
C1948      C1953   1.405       .  A
C1948      C1980   1.460       .  S
C1949      C2764   1.406       .  A
C1949      C2766   1.402       .  A
C1949      H1954   1.084       .  S
C1950      C2765   1.402       .  A
C1950      C1951   1.399       .  A
C1951      C1952   1.397       .  A
C1951      H1955   1.085       .  S
C1952      C1953   1.397       .  A
C1952      C2027   1.470       .  S
C1953      H1956   1.084       .  S
Zr1957     O1958   2.442       .  S
Zr1957     O1959   2.449       .  S
Zr1957     O1960   2.437       .  S
Zr1957     O1963   2.440       .  S
Zr1957     O1965   2.382       .  S
Zr1957     O2782   2.387       .  S
Zr1957     O1967   2.414       .  S
Zr1957     O1968   2.397       .  S
O1958      H2014   0.991       .  S
O1958      H2022   0.990       .  S
O1959      C2795   1.284       .  A
O1960      C2389   1.283       .  A
O1961     Zr1971   2.418   1_565  S
O1961      C2796   1.281       .  A
O1962     Zr1970   2.430       .  S
O1962      C1981   1.284       .  A
O1963      C1980   1.285       .  A
O1964     Zr1972   2.394       .  S
O1964      C1979   1.276       .  A
O1965     Zr2378   2.396       .  S
O1965     Zr2788   2.383       .  S
O1966     Zr2773   2.387   1_545  S
O1966     Zr1971   2.392       .  S
O1966     Zr1972   2.378       .  S
O1966      H2001   0.966       .  S
O1967     Zr2378   2.401       .  S
O1967      H2004   0.964       .  S
O1968     Zr2787   2.386       .  S
Zr1969     O1994   2.441       .  S
Zr1969     O1988   2.454       .  S
Zr1969     O1996   2.452       .  S
Zr1969     O2392   2.452       .  S
Zr1969     O2793   2.387   1_545  S
Zr1969     O1978   2.384       .  S
Zr1970     O1982   2.435       .  S
Zr1970     O2373   2.396       .  S
Zr1970     O2375   2.401   1_554  S
Zr1970     O2792   2.396   1_554  S
Zr1971     O1973   2.435       .  S
Zr1971     O1995   2.438       .  S
Zr1971     O2784   2.386   1_545  S
Zr1971     O1975   2.395       .  S
Zr1972     O1998   2.434       .  S
Zr1972     O2407   2.432       .  S
Zr1972     O2382   2.437       .  S
Zr1972     O2781   2.383   1_545  S
Zr1972     O1975   2.390       .  S
Zr1972     O2384   2.376       .  S
O1973      H2010   0.990       .  S
O1974     Zr2380   2.437   1_554  S
O1974      H2005   0.990       .  S
O1974      H2019   0.990       .  S
O1976     Zr2786   2.396   1_546  S
O1976     Zr2380   2.376       .  S
O1976      H2002   0.964   1_656  S
O1977     Zr2785   2.387       .  S
O1977     Zr1987   2.380       .  S
O1978     Zr2803   2.375   1_545  S
O1978      H2003   0.965       .  S
C1979      O2775   1.284   1_545  A
C1980      O2777   1.281       .  A
C1981      C2032   1.465       .  S
C1981      O2368   1.283   1_554  A
O1982      H2018   0.990       .  S
O1983      C2801   1.284       .  A
O1984     Zr2377   2.452   1_554  S
O1984      C1985   1.288       .  A
C1985      O2799   1.284   1_545  A
Zr1987     O1990   2.438       .  S
Zr1987     O1991   2.440       .  S
Zr1987     O1992   2.392       .  S
Zr1987     O2794   2.375       .  S
O1988      C2809   1.285   1_545  A
O1989      H2006   0.991       .  S
O1989      H2021   0.990       .  S
O1990      H2007   0.990       .  S
O1991      H2011   0.990       .  S
O1991      H2020   0.990       .  S
O1992      C1993   1.277       .  A
C1993      O2804   1.285       .  A
O1994      H2013   0.992       .  S
O1994      H2425   0.989       .  S
O1995      H2009   0.990       .  S
O1995      H2016   0.990       .  S
O1996      C2000   1.287       .  A
O1997      C2000   1.279       .  A
O1998      H2008   0.990       .  S
O1999     Zr2380   2.432   1_554  S
O1999      H2012   0.990   1_554  S
H2017      O2402   0.989       .  S
C2023      C2024   1.404       .  A
C2023      C2028   1.399       .  A
C2024      C2025   1.414       .  A
C2024      H2029   1.079       .  S
C2025      C2026   1.412       .  A
C2025      C2034   1.511       .  S
C2026      C2027   1.400       .  A
C2026      H2030   1.077       .  S
C2027      C2028   1.398       .  A
C2028      H2031   1.084       .  S
C2032      C2033   1.398       .  A
C2032      C2445   1.396       .  A
C2033      C2034   1.416       .  A
C2033      H2038   1.077       .  S
C2034      C2035   1.416       .  A
C2035      C2036   1.404       .  A
C2035      H2039   1.079       .  S
C2036      C2445   1.395       .  A
C2037      C2440   1.396       .  A
C2037      C2444   1.395       .  A
C2037      H2040   1.085       .  S
C2041      C2042   1.405       .  A
C2041      C2046   1.406       .  A
C2041      C2082   1.460       .  S
C2042      C2043   1.397       .  A
C2042      H2047   1.084       .  S
C2043      C2044   1.396       .  A
C2043      C2125   1.470       .  S
C2044      C2045   1.399       .  A
C2044      H2048   1.085       .  S
C2045      C2046   1.403       .  A
C2045      C2285   1.466       .  S
C2046      H2049   1.084       .  S
C2050      C2051   1.409       .  A
C2050      C2087   1.469       .  S
C2051      H2056   1.083       .  S
C2052      C2053   1.402       .  A
C2052      C2299   1.469       .  S
C2053      C2054   1.395       .  A
C2053      H2057   1.085       .  S
C2054      C2055   1.398   1_556  A
C2054      C2238   1.475       .  S
Zr2059     O2060   2.443       .  S
Zr2059     O2061   2.449       .  S
Zr2059     O2062   2.437       .  S
Zr2059     O2065   2.442       .  S
Zr2059     O2067   2.382       .  S
Zr2059     O2068   2.387       .  S
Zr2059     O2069   2.415       .  S
Zr2059     O2070   2.397       .  S
O2060      H2116   0.991       .  S
O2060      H2124   0.990       .  S
O2061      C2081   1.284       .  A
O2062      C2083   1.283       .  A
O2063     Zr2073   2.416       .  S
O2063      C2082   1.280       .  A
O2064     Zr2072   2.430       .  S
O2064      C2083   1.284       .  A
O2065      C2082   1.285       .  A
O2066     Zr2074   2.394       .  S
O2066      C2081   1.277       .  A
O2067     Zr2072   2.397       .  S
O2067     Zr2074   2.383       .  S
O2068     Zr2073   2.392       .  S
O2068     Zr2074   2.378       .  S
O2068      H2103   0.966       .  S
O2069     Zr2072   2.402       .  S
O2069     Zr2089   2.382       .  S
O2069      H2106   0.964       .  S
O2070     Zr2073   2.386       .  S
O2070     Zr2089   2.382       .  S
Zr2071     O2096   2.441       .  S
Zr2071     O2090   2.454       .  S
Zr2071     O2098   2.454       .  S
Zr2071     O2086   2.453       .  S
Zr2071     O2077   2.407       .  S
Zr2071     O2078   2.414       .  S
Zr2071     O2079   2.386       .  S
Zr2071     O2080   2.384       .  S
Zr2072     O2091   2.436       .  S
Zr2072     O2084   2.435       .  S
Zr2072     O2085   2.434       .  S
Zr2072     O2078   2.396       .  S
Zr2072     O2079   2.399       .  S
Zr2073     O2075   2.435       .  S
Zr2073     O2097   2.438       .  S
Zr2073     O2099   2.410       .  S
Zr2073     O2077   2.395       .  S
Zr2073     O2080   2.395       .  S
Zr2074     O2100   2.434       .  S
Zr2074     O2101   2.432       .  S
Zr2074     O2076   2.437       .  S
Zr2074     O2077   2.389       .  S
Zr2074     O2078   2.377       .  S
O2075      H2112   0.990       .  S
O2076      H2107   0.990       .  S
O2076      H2121   0.990       .  S
O2078      H2104   0.964       .  S
O2079     Zr2089   2.380       .  S
O2080     Zr2089   2.376       .  S
O2080      H2105   0.966       .  S
C2081      C2247   1.465       .  S
C2083      C2134   1.465       .  S
O2084      H2120   0.990       .  S
O2085      C2087   1.284       .  A
O2086      C2087   1.288       .  A
O2088     Zr2089   2.436       .  S
O2088      H2117   0.991       .  S
Zr2089     O2092   2.438       .  S
Zr2089     O2093   2.440       .  S
Zr2089     O2094   2.393       .  S
O2090      C2095   1.285       .  A
O2091      H2108   0.991       .  S
O2091      H2123   0.990       .  S
O2092      H2109   0.990       .  S
O2093      H2113   0.990       .  S
O2093      H2122   0.990       .  S
O2094      C2095   1.277       .  A
C2095      C2258   1.469       .  S
O2096      H2115   0.992       .  S
O2096      H2119   0.989       .  S
O2097      H2111   0.990       .  S
O2097      H2118   0.990       .  S
O2098      C2102   1.287       .  A
O2099      C2102   1.279       .  A
O2100      H2110   0.990       .  S
O2101      H2114   0.990       .  S
C2102      C2231   1.470       .  S
C2125      C2126   1.399       .  A
C2125      C2130   1.397       .  A
C2126      H2131   1.077       .  S
C2127      C2136   1.511       .  S
C2128      C2129   1.404       .  A
C2128      H2132   1.079       .  S
C2129      C2130   1.399       .  A
C2129      C2147   1.475       .  S
C2130      H2133   1.084       .  S
C2134      C2135   1.398       .  A
C2134      C2139   1.396       .  A
C2135      C2136   1.416       .  A
C2135      H2140   1.077       .  S
C2136      C2137   1.416       .  A
C2137      C2138   1.405       .  A
C2137      H2141   1.079       .  S
C2138      C2139   1.395       .  A
C2138      C2204   1.470       .  S
C2139      H2142   1.085       .  S
C2143      C2960   1.409       .  A
C2143      C2148   1.405       .  A
C2143      C2189   1.469       .  S
C2144      C2959   1.409       .  A
C2144      C2961   1.408       .  A
C2144      H2149   1.083       .  S
C2145      C2960   1.408       .  A
C2145      C2146   1.402       .  A
C2145      C2401   1.469       .  S
C2146      C2147   1.395       .  A
C2146      H2150   1.085       .  S
C2147      C2148   1.398       .  A
C2148      H2151   1.085       .  S
C2152      C2973   1.406       .  A
C2152      C2184   1.460       .  S
C2153      C2154   1.397   1_554  A
C2154      C2155   1.397       .  A
C2154      C2236   1.470       .  S
C2155      C2156   1.399   1_556  A
C2155      H2159   1.085       .  S
C2156      C2565   1.402       .  A
C2156      C2387   1.465   1_554  S
C2157      C2968   1.406       .  A
C2157      C2564   1.402       .  A
C2157      H2160   1.084       .  S
Zr2161     O2162   2.443       .  S
Zr2161     O2163   2.450   1_545  S
Zr2161     O2164   2.437       .  S
Zr2161     O2167   2.440       .  S
Zr2161     O2169   2.382   1_545  S
Zr2161     O2986   2.387   1_545  S
Zr2161     O2171   2.415       .  S
Zr2161     O2172   2.398       .  S
O2162      H2218   0.991       .  S
O2162      H2226   0.990       .  S
O2163      C2999   1.284       .  A
O2164      C2185   1.282       .  A
O2165     Zr2175   2.417       .  S
O2165      C3000   1.280       .  A
O2166     Zr2174   2.430       .  S
O2166      C2185   1.284       .  A
O2167      C2184   1.285       .  A
O2168     Zr2176   2.393       .  S
O2168      C2183   1.276       .  A
O2169     Zr2174   2.397   1_565  S
O2169     Zr2992   2.383       .  S
O2170     Zr2977   2.387       .  S
O2170     Zr2175   2.392       .  S
O2170     Zr2176   2.378       .  S
O2170      H2205   0.966       .  S
O2171     Zr2174   2.402       .  S
O2171     Zr2191   2.383       .  S
O2171      H2208   0.964       .  S
O2172     Zr2991   2.386   1_545  S
O2172     Zr2191   2.382       .  S
Zr2173     O2198   2.441       .  S
Zr2173     O2192   2.454       .  S
Zr2173     O2200   2.452       .  S
Zr2173     O2188   2.452       .  S
Zr2173     O2179   2.407       .  S
Zr2173     O2180   2.413       .  S
Zr2173     O2997   2.387       .  S
Zr2173     O2182   2.384       .  S
Zr2174     O2193   2.437       .  S
Zr2174     O2186   2.434       .  S
Zr2174     O2187   2.433   1_545  S
Zr2174     O2996   2.396   1_545  S
Zr2174     O2181   2.399       .  S
Zr2175     O2177   2.435       .  S
Zr2175     O2199   2.438       .  S
Zr2175     O2201   2.410       .  S
Zr2175     O2988   2.386       .  S
Zr2175     O2179   2.395       .  S
Zr2175     O2182   2.395       .  S
Zr2176     O2202   2.434       .  S
Zr2176     O2203   2.431       .  S
Zr2176     O2178   2.437       .  S
Zr2176     O2985   2.383       .  S
Zr2176     O2179   2.389       .  S
Zr2176     O2180   2.376       .  S
O2177      H2214   0.990       .  S
O2178      H2209   0.990       .  S
O2178      H2223   0.990       .  S
O2180     Zr2990   2.396       .  S
O2180      H2206   0.964       .  S
O2181     Zr2989   2.387   1_545  S
O2181     Zr2191   2.380       .  S
O2182     Zr3007   2.375       .  S
O2182      H2207   0.966       .  S
C2183      C2358   1.465       .  S
C2183      O2979   1.284       .  A
C2184      O2981   1.280   1_545  A
C2185      C2227   1.464       .  S
O2186      H2222   0.990   1_545  S
O2187      C3005   1.284       .  A
O2188      C2189   1.287       .  A
C2189      O3003   1.284       .  A
O2190     Zr2191   2.436       .  S
O2190      H2219   0.991       .  S
Zr2191     O2194   2.438       .  S
Zr2191     O2195   2.440       .  S
Zr2191     O2196   2.394       .  S
Zr2191     O2998   2.375   1_545  S
O2192      C3013   1.285       .  A
O2193      H2210   0.991       .  S
O2193      H2225   0.990       .  S
O2194      H2211   0.990       .  S
O2195      H2215   0.990       .  S
O2195      H2224   0.990       .  S
O2196      C2197   1.277       .  A
C2197      C2351   1.470       .  S
C2197      O3008   1.285   1_545  A
O2198      H2217   0.992       .  S
O2198      H2221   0.989       .  S
O2199      H2213   0.990       .  S
O2199      H2220   0.990       .  S
O2200      C2204   1.287       .  A
O2201      C2204   1.279       .  A
O2202      H2212   0.990       .  S
O2203      H2216   0.990       .  S
C2227      C2228   1.398       .  A
C2227      C2232   1.396       .  A
C2228      C2229   1.416       .  A
C2228      H2233   1.077       .  S
C2229      C2230   1.416       .  A
C2229      C2240   1.512       .  S
C2230      C2231   1.405       .  A
C2230      H2234   1.079       .  S
C2231      C2232   1.394       .  A
C2232      H2235   1.085       .  S
C2236      C2237   1.397       .  A
C2236      C2241   1.400       .  A
C2237      C2238   1.399       .  A
C2238      C2239   1.404       .  A
C2239      C2240   1.414       .  A
C2239      H2243   1.079       .  S
C2240      C2241   1.413       .  A
C2241      H2244   1.077       .  S
C2245      C2246   1.406       .  A
C2245      C2250   1.406       .  A
C2245      C2286   1.460       .  S
C2246      C2247   1.403       .  A
C2246      H2251   1.084       .  S
C2247      C2248   1.399       .  A
C2248      C2249   1.396       .  A
C2248      H2252   1.085       .  S
C2249      C2250   1.397       .  A
C2249      C2338   1.470       .  S
C2250      H2253   1.084       .  S
C2254      C2255   1.405       .  A
C2254      C2259   1.409       .  A
C2254      C2291   1.469       .  S
C2255      C2256   1.398       .  A
C2255      H2260   1.084       .  S
C2256      C2257   1.395       .  A
C2256      C2431   1.474       .  S
C2257      C2258   1.402       .  A
C2257      H2261   1.085       .  S
C2258      C2259   1.408       .  A
C2259      H2262   1.083       .  S
Zr2263     O2264   2.443       .  S
Zr2263     O2265   2.450       .  S
Zr2263     O2266   2.438       .  S
Zr2263     O2271   2.382       .  S
Zr2263     O2272   2.387       .  S
O2264      H2320   0.991       .  S
O2264      H2328   0.990       .  S
O2265      C2285   1.284       .  A
O2266      C2287   1.283       .  A
O2267      C2286   1.280       .  A
O2268      C2287   1.284       .  A
O2269      C2286   1.285       .  A
O2270     Zr2278   2.394       .  S
O2270      C2285   1.277       .  A
O2271     Zr2278   2.383       .  S
O2272     Zr2278   2.378       .  S
O2272      H2307   0.966       .  S
O2273     Zr2276   2.402       .  S
O2273     Zr2293   2.382       .  S
O2273      H2310   0.964       .  S
O2274     Zr2277   2.386       .  S
Zr2275     O2300   2.441       .  S
Zr2275     O2294   2.455       .  S
Zr2275     O2302   2.452       .  S
Zr2275     O2290   2.452       .  S
Zr2275     O2281   2.408       .  S
Zr2275     O2282   2.413       .  S
Zr2275     O2283   2.386       .  S
Zr2275     O2284   2.385       .  S
Zr2276     O2295   2.437       .  S
Zr2276     O2288   2.435       .  S
Zr2276     O2289   2.433       .  S
Zr2276     O2282   2.396       .  S
Zr2276     O2283   2.399       .  S
Zr2277     O2279   2.435       .  S
Zr2277     O2303   2.411       .  S
Zr2278     O2304   2.434       .  S
Zr2278     O2305   2.431       .  S
Zr2278     O2280   2.437       .  S
O2279      H2316   0.990       .  S
O2280      H2311   0.990       .  S
O2280      H2325   0.990       .  S
O2282      H2308   0.964       .  S
O2283     Zr2293   2.380       .  S
O2284     Zr2293   2.376       .  S
C2287      C2329   1.465       .  S
O2289      C2291   1.284       .  A
O2290      C2291   1.287       .  A
O2292      H2321   0.991       .  S
Zr2293     O2296   2.438       .  S
Zr2293     O2298   2.392       .  S
O2294      C2299   1.285       .  A
O2295      H2312   0.991       .  S
O2295      H2327   0.990       .  S
O2296      H2313   0.990       .  S
O2297      H2317   0.990       .  S
O2297      H2326   0.990       .  S
O2298      C2299   1.277       .  A
O2300      H2319   0.992       .  S
O2300      H2323   0.989       .  S
O2301      H2315   0.990       .  S
O2301      H2322   0.990       .  S
O2303      C2306   1.280       .  A
O2304      H2314   0.990       .  S
C2306      C2444   1.470       .  S
C2329      C2330   1.396       .  A
C2329      C2334   1.399       .  A
C2330      C2331   1.394       .  A
C2330      H2335   1.085       .  S
C2331      C2332   1.405       .  A
C2331      C2408   1.470       .  S
C2332      C2333   1.416       .  A
C2332      H2336   1.079       .  S
C2333      C2334   1.417       .  A
C2333      C2340   1.512       .  S
C2334      H2337   1.077       .  S
C2338      C2339   1.400       .  A
C2338      C2343   1.398       .  A
C2339      C2340   1.413       .  A
C2339      H2344   1.077       .  S
C2340      C2341   1.414       .  A
C2341      C2342   1.404       .  A
C2341      H2345   1.079       .  S
C2342      C2343   1.399       .  A
C2342      C2349   1.475       .  S
C2343      H2346   1.084       .  S
C2347      C2348   1.406       .  A
C2347      C3168   1.409       .  A
C2347      C2393   1.469       .  S
C2348      C2349   1.398       .  A
C2348      H2353   1.085       .  S
C2349      C2350   1.395       .  A
C2350      C2351   1.402       .  A
C2350      H2354   1.085       .  S
C2351      C3168   1.408       .  A
C2352      C3163   1.409       .  A
C2352      C3167   1.408       .  A
C2352      H2355   1.083       .  S
C2356      C3173   1.406       .  A
C2356      C2361   1.405       .  A
C2356      C2388   1.460       .  S
C2357      C3172   1.406       .  A
C2357      C3174   1.402       .  A
C2357      H2362   1.084       .  S
C2358      C3173   1.402       .  A
C2358      C2359   1.399       .  A
C2359      C2360   1.397       .  A
C2359      H2363   1.085       .  S
C2360      C2361   1.397       .  A
C2360      C2435   1.470       .  S
C2361      H2364   1.084       .  S
Zr2365     O2366   2.442       .  S
Zr2365     O2367   2.449       .  S
Zr2365     O2368   2.437       .  S
Zr2365     O2371   2.440       .  S
Zr2365     O2373   2.382   1_556  S
Zr2365     O3190   2.387       .  S
Zr2365     O2375   2.414       .  S
Zr2365     O2376   2.397       .  S
O2366      H2422   0.991       .  S
O2366      H2430   0.990       .  S
O2367      C3203   1.284       .  A
O2369     Zr2379   2.418   1_565  S
O2369      C3204   1.281       .  A
O2370     Zr2378   2.430       .  S
O2370      C2389   1.284       .  A
O2371      C2388   1.285       .  A
O2372     Zr2380   2.394       .  S
O2372      C2387   1.276       .  A
O2373     Zr3196   2.383   1_554  S
O2374     Zr3181   2.387   1_545  S
O2374     Zr2379   2.392       .  S
O2374     Zr2380   2.378       .  S
O2374      H2409   0.966       .  S
O2375      H2412   0.964       .  S
O2376     Zr3195   2.386       .  S
Zr2377     O2402   2.441       .  S
Zr2377     O2396   2.454       .  S
Zr2377     O2404   2.452       .  S
Zr2377     O3201   2.387   1_545  S
Zr2377     O2386   2.384       .  S
Zr2378     O2390   2.435       .  S
Zr2378     O3200   2.396       .  S
Zr2379     O2381   2.435       .  S
Zr2379     O2403   2.438       .  S
Zr2379     O3192   2.386   1_545  S
Zr2379     O2383   2.395       .  S
Zr2380     O2406   2.434       .  S
Zr2380     O3189   2.383   1_546  S
Zr2380     O2383   2.390       .  S
O2381      H2418   0.990       .  S
O2382      H2413   0.990       .  S
O2382      H2427   0.990       .  S
O2384     Zr3194   2.396   1_545  S
O2384      H2410   0.964   1_655  S
O2385     Zr3193   2.387       .  S
O2385     Zr2395   2.380       .  S
O2386     Zr3211   2.375   1_545  S
O2386      H2411   0.965       .  S
C2387      O3183   1.284   1_545  A
C2388      O3185   1.281       .  A
C2389      C2440   1.465       .  S
O2390      H2426   0.990       .  S
O2391      C3209   1.284       .  A
O2392      C2393   1.288       .  A
C2393      O3207   1.284   1_545  A
Zr2395     O2398   2.438       .  S
Zr2395     O2399   2.440       .  S
Zr2395     O2400   2.392       .  S
Zr2395     O3202   2.375       .  S
O2396      C3217   1.285   1_545  A
O2397      H2414   0.991       .  S
O2397      H2429   0.990       .  S
O2398      H2415   0.990       .  S
O2399      H2419   0.990       .  S
O2399      H2428   0.990       .  S
O2400      C2401   1.277       .  A
C2401      O3212   1.285       .  A
O2402      H2421   0.992       .  S
O2403      H2417   0.990       .  S
O2403      H2424   0.990       .  S
O2404      C2408   1.287       .  A
O2405      C2408   1.279       .  A
O2406      H2416   0.990       .  S
O2407      H2420   0.990       .  S
C2431      C2432   1.404       .  A
C2431      C2436   1.399       .  A
C2432      C2433   1.414       .  A
C2432      H2437   1.079       .  S
C2433      C2434   1.412       .  A
C2433      C2442   1.511       .  S
C2434      C2435   1.400       .  A
C2434      H2438   1.077       .  S
C2435      C2436   1.398       .  A
C2436      H2439   1.084       .  S
C2440      C2441   1.398       .  A
C2441      C2442   1.416       .  A
C2441      H2446   1.077       .  S
C2442      C2443   1.416       .  A
C2443      C2444   1.404       .  A
C2443      H2447   1.079       .  S
C2445      H2448   1.085   1_554  S
C2449      C2450   1.405       .  A
C2449      C2454   1.406       .  A
C2449      C2490   1.460       .  S
C2450      C2451   1.397       .  A
C2450      H2455   1.084       .  S
C2451      C2452   1.396       .  A
C2451      C2533   1.470       .  S
C2452      C2453   1.399       .  A
C2452      H2456   1.085       .  S
C2453      C2454   1.403       .  A
C2453      C2693   1.466       .  S
C2454      H2457   1.084       .  S
C2458      C2459   1.409       .  A
C2458      C2871   1.406       .  A
C2458      C2495   1.469       .  S
C2459      C2868   1.408   1_554  A
C2459      H2464   1.083       .  S
C2460      C2867   1.408       .  A
C2460      C2461   1.402       .  A
C2460      C2707   1.469       .  S
C2461      C2462   1.395       .  A
C2461      H2465   1.085       .  S
C2462      C2463   1.398       .  A
C2462      C2646   1.475       .  S
C2463      C2866   1.406       .  A
C2463      H2874   1.084       .  S
H2466      C2871   1.084       .  S
Zr2467     O2468   2.443       .  S
Zr2467     O2469   2.449       .  S
Zr2467     O2470   2.437       .  S
Zr2467     O2473   2.442       .  S
Zr2467     O2475   2.382       .  S
Zr2467     O2476   2.387       .  S
Zr2467     O2477   2.415       .  S
Zr2467     O2478   2.397       .  S
O2468      H2524   0.991       .  S
O2468      H2532   0.990       .  S
O2469      C2489   1.284       .  A
O2470      C2491   1.283       .  A
O2471     Zr2481   2.416       .  S
O2471      C2490   1.280       .  A
O2472     Zr2480   2.430       .  S
O2472      C2491   1.284       .  A
O2473      C2490   1.285       .  A
O2474     Zr2482   2.394       .  S
O2474      C2489   1.277       .  A
O2475     Zr2480   2.397       .  S
O2475     Zr2482   2.383       .  S
O2476     Zr2481   2.392       .  S
O2476     Zr2482   2.378       .  S
O2476      H2511   0.966       .  S
O2477     Zr2480   2.402       .  S
O2477     Zr2497   2.382       .  S
O2477      H2514   0.964       .  S
O2478     Zr2481   2.386       .  S
O2478     Zr2497   2.382       .  S
Zr2479     O2504   2.441       .  S
Zr2479     O2498   2.454       .  S
Zr2479     O2506   2.454       .  S
Zr2479     O2494   2.453       .  S
Zr2479     O2485   2.407       .  S
Zr2479     O2486   2.414       .  S
Zr2479     O2487   2.386       .  S
Zr2479     O2488   2.384       .  S
Zr2480     O2499   2.436       .  S
Zr2480     O2492   2.435       .  S
Zr2480     O2493   2.434       .  S
Zr2480     O2486   2.396       .  S
Zr2480     O2487   2.399       .  S
Zr2481     O2483   2.435       .  S
Zr2481     O2505   2.438       .  S
Zr2481     O2507   2.410       .  S
Zr2481     O2485   2.395       .  S
Zr2481     O2488   2.395       .  S
Zr2482     O2508   2.434       .  S
Zr2482     O2509   2.432       .  S
Zr2482     O2484   2.437       .  S
Zr2482     O2485   2.389       .  S
Zr2482     O2486   2.377       .  S
O2483      H2520   0.990       .  S
O2484      H2515   0.990       .  S
O2484      H2529   0.990       .  S
O2486      H2512   0.964       .  S
O2487     Zr2497   2.380       .  S
O2488     Zr2497   2.376       .  S
O2488      H2513   0.966       .  S
C2489      C2655   1.465       .  S
C2491      C2542   1.465       .  S
O2492      H2528   0.990       .  S
O2493      C2495   1.284       .  A
O2494      C2495   1.288       .  A
O2496     Zr2497   2.436       .  S
O2496      H2525   0.991       .  S
Zr2497     O2500   2.438       .  S
Zr2497     O2501   2.440       .  S
Zr2497     O2502   2.393       .  S
O2498      C2503   1.285       .  A
O2499      H2516   0.991       .  S
O2499      H2531   0.990       .  S
O2500      H2517   0.990       .  S
O2501      H2521   0.990       .  S
O2501      H2530   0.990       .  S
O2502      C2503   1.277       .  A
C2503      C2666   1.469       .  S
O2504      H2523   0.992       .  S
O2504      H2527   0.989       .  S
O2505      H2519   0.990       .  S
O2505      H2526   0.990       .  S
O2506      C2510   1.287       .  A
O2507      C2510   1.279       .  A
O2508      H2518   0.990       .  S
O2509      H2522   0.990       .  S
C2510      C2639   1.470       .  S
C2533      C2534   1.399       .  A
C2533      C2538   1.397       .  A
C2534      C2943   1.412       .  A
C2534      H2539   1.077       .  S
C2535      C2942   1.412       .  A
C2535      C2944   1.414       .  A
C2535      C2544   1.511   1_556  S
C2536      C2943   1.414       .  A
C2536      C2537   1.404       .  A
C2536      H2540   1.079       .  S
C2537      C2538   1.399       .  A
C2537      C2555   1.475       .  S
C2538      H2541   1.084       .  S
C2542      C2543   1.398       .  A
C2542      C2547   1.396       .  A
C2543      C2544   1.416       .  A
C2543      H2548   1.077       .  S
C2544      C2545   1.416       .  A
C2545      C2546   1.405       .  A
C2545      H2549   1.079       .  S
C2546      C2547   1.395       .  A
C2546      C2612   1.470       .  S
C2547      H2550   1.085       .  S
C2551      C2556   1.405       .  A
C2551      C2597   1.469       .  S
C2552      H2557   1.083       .  S
C2553      C2554   1.402       .  A
C2553      C2809   1.469       .  S
C2554      C2555   1.395       .  A
C2554      H2558   1.085       .  S
C2555      C2556   1.398       .  A
C2556      H2559   1.085       .  S
C2560      C2969   1.405       .  A
C2560      C2592   1.460       .  S
C2561      C2968   1.405       .  A
C2561      C2562   1.397       .  A
C2561      H2974   1.084       .  S
C2562      C2563   1.397       .  A
C2562      C2644   1.470       .  S
C2563      C2564   1.399       .  A
C2563      H2567   1.085       .  S
C2564      C2795   1.465       .  S
C2565      H2568   1.084       .  S
H2566      C2969   1.084       .  S
Zr2569     O2570   2.443       .  S
Zr2569     O2571   2.450       .  S
Zr2569     O2572   2.437       .  S
Zr2569     O2575   2.440       .  S
Zr2569     O2577   2.382       .  S
Zr2569     O2579   2.415       .  S
Zr2569     O2580   2.398       .  S
O2570      H2626   0.991       .  S
O2570      H2634   0.990       .  S
O2572      C2593   1.282       .  A
O2573     Zr2583   2.417       .  S
O2574     Zr2582   2.430       .  S
O2574      C2593   1.284       .  A
O2575      C2592   1.285       .  A
O2576     Zr2584   2.393       .  S
O2576      C2591   1.276       .  A
O2577     Zr2582   2.397       .  S
O2578     Zr2583   2.392       .  S
O2578     Zr2584   2.378       .  S
O2578      H2613   0.966       .  S
O2579     Zr2582   2.402       .  S
O2579     Zr2599   2.383       .  S
O2579      H2616   0.964       .  S
O2580     Zr2599   2.382       .  S
Zr2581     O2606   2.441       .  S
Zr2581     O2600   2.454       .  S
Zr2581     O2608   2.452       .  S
Zr2581     O2596   2.452       .  S
Zr2581     O2587   2.407       .  S
Zr2581     O2588   2.413       .  S
Zr2581     O2590   2.384       .  S
Zr2582     O2601   2.437       .  S
Zr2582     O2594   2.434       .  S
Zr2582     O2595   2.433       .  S
Zr2582     O2589   2.399       .  S
Zr2583     O2585   2.435       .  S
Zr2583     O2607   2.438       .  S
Zr2583     O2609   2.410       .  S
Zr2583     O2587   2.395       .  S
Zr2583     O2590   2.395       .  S
Zr2584     O2610   2.434       .  S
Zr2584     O2611   2.431       .  S
Zr2584     O2586   2.437       .  S
Zr2584     O2587   2.389       .  S
Zr2584     O2588   2.376       .  S
O2585      H2622   0.990       .  S
O2586      H2617   0.990       .  S
O2586      H2631   0.990       .  S
O2588      H2614   0.964       .  S
O2589     Zr2599   2.380       .  S
O2590      H2615   0.966       .  S
C2591      C2766   1.465       .  S
C2593      C2635   1.464       .  S
O2594      H2630   0.990       .  S
O2596      C2597   1.287       .  A
O2598     Zr2599   2.436       .  S
O2598      H2627   0.991       .  S
Zr2599     O2602   2.438       .  S
Zr2599     O2603   2.440       .  S
Zr2599     O2604   2.394       .  S
O2601      H2618   0.991       .  S
O2601      H2633   0.990       .  S
O2602      H2619   0.990       .  S
O2603      H2623   0.990       .  S
O2603      H2632   0.990       .  S
O2604      C2605   1.277       .  A
C2605      C2759   1.470       .  S
O2606      H2625   0.992       .  S
O2606      H2629   0.989       .  S
O2607      H2621   0.990       .  S
O2607      H2628   0.990       .  S
O2608      C2612   1.287       .  A
O2609      C2612   1.279       .  A
O2610      H2620   0.990       .  S
O2611      H2624   0.990       .  S
C2635      C2636   1.398       .  A
C2635      C2640   1.396       .  A
C2636      C2637   1.416       .  A
C2636      H2641   1.077       .  S
C2637      C2638   1.416       .  A
C2637      C2648   1.512       .  S
C2638      C2639   1.405       .  A
C2638      H2642   1.079       .  S
C2639      C2640   1.394       .  A
C2640      H2643   1.085       .  S
C2644      C2645   1.397       .  A
C2644      C2649   1.400       .  A
C2645      C2646   1.399       .  A
C2645      H3058   1.084       .  S
C2646      C2647   1.404       .  A
C2647      C2648   1.414       .  A
C2647      H2651   1.079       .  S
C2648      C2649   1.413       .  A
C2649      H2652   1.077       .  S
H2650      C3053   1.084   1_554  S
C2653      C2654   1.406       .  A
C2653      C2658   1.406       .  A
C2653      C2694   1.460       .  S
C2654      C2655   1.403       .  A
C2654      H2659   1.084       .  S
C2655      C2656   1.399       .  A
C2656      C2657   1.396       .  A
C2656      H2660   1.085       .  S
C2657      C2658   1.397       .  A
C2657      C2746   1.470       .  S
C2658      H2661   1.084       .  S
C2662      C2663   1.405       .  A
C2662      C2667   1.409       .  A
C2662      C2699   1.469       .  S
C2663      C2664   1.398       .  A
C2663      H2668   1.084       .  S
C2664      C2665   1.395       .  A
C2664      C2839   1.474       .  S
C2665      C2666   1.402       .  A
C2665      H2669   1.085       .  S
C2666      C2667   1.408       .  A
C2667      H2670   1.083       .  S
Zr2671     O2672   2.443       .  S
Zr2671     O2673   2.450       .  S
Zr2671     O2674   2.438       .  S
Zr2671     O3085   2.442       .  S
Zr2671     O2679   2.382       .  S
Zr2671     O2680   2.387       .  S
O2672      H2728   0.991       .  S
O2672      H2736   0.990       .  S
O2673      C2693   1.284       .  A
O2674      C2695   1.283       .  A
O2675      C2694   1.280       .  A
O2676      C2695   1.284       .  A
O2677     Zr3079   2.442   1_554  S
O2677      C2694   1.285       .  A
O2678     Zr2686   2.394       .  S
O2678      C2693   1.277       .  A
O2679     Zr2686   2.383       .  S
O2680     Zr2686   2.378       .  S
O2680      H2715   0.966       .  S
O2681     Zr2684   2.402       .  S
O2681     Zr2701   2.382       .  S
O2681      H2718   0.964       .  S
O2682     Zr2685   2.386   1_556  S
O2682     Zr3109   2.382       .  S
Zr2683     O2708   2.441       .  S
Zr2683     O2702   2.455       .  S
Zr2683     O2710   2.452       .  S
Zr2683     O2698   2.452       .  S
Zr2683     O2689   2.408       .  S
Zr2683     O2690   2.413       .  S
Zr2683     O2691   2.386       .  S
Zr2683     O2692   2.385       .  S
Zr2684     O2703   2.437       .  S
Zr2684     O2696   2.435       .  S
Zr2684     O2697   2.433       .  S
Zr2684     O2690   2.396       .  S
Zr2684     O2691   2.399       .  S
Zr2685     O2687   2.435       .  S
Zr2685     O2711   2.411       .  S
Zr2685     O3097   2.394   1_554  S
Zr2685     O3100   2.395   1_554  S
Zr2686     O2712   2.434       .  S
Zr2686     O2713   2.431       .  S
Zr2686     O2688   2.437       .  S
O2687      H2724   0.990       .  S
O2688      H2719   0.990       .  S
O2688      H2733   0.990       .  S
O2689     Zr3093   2.394       .  S
O2690      H2716   0.964       .  S
O2691     Zr2701   2.380       .  S
O2692     Zr3093   2.395       .  S
O2692     Zr2701   2.376       .  S
O2692      H3125   0.966       .  S
C2695      C2737   1.465       .  S
O2697      C2699   1.284       .  A
O2698      C2699   1.287       .  A
O2700     Zr3109   2.436   1_554  S
O2700      H2729   0.991       .  S
Zr2701     O3108   2.436       .  S
Zr2701     O2704   2.438       .  S
Zr2701     O3113   2.440       .  S
Zr2701     O2706   2.392       .  S
Zr2701     O3090   2.382       .  S
O2702      C2707   1.285       .  A
O2703      H2720   0.991       .  S
O2703      H2735   0.990       .  S
O2704      H2721   0.990       .  S
O2705     Zr3109   2.440   1_554  S
O2705      H2725   0.990       .  S
O2705      H2734   0.990       .  S
O2706      C2707   1.277       .  A
O2708      H2727   0.992       .  S
O2708      H2731   0.989       .  S
O2709      H2723   0.990       .  S
O2709      H2730   0.990       .  S
O2710      C3122   1.287       .  A
O2711      C2714   1.280       .  A
O2712      H2722   0.990       .  S
C2714      C2852   1.470       .  S
C2714      O3118   1.287   1_554  A
H2717      O3100   0.966   1_554  S
C2737      C2738   1.396       .  A
C2737      C2742   1.399       .  A
C2738      C2739   1.394       .  A
C2738      H2743   1.085       .  S
C2739      C2740   1.405       .  A
C2739      C2816   1.470       .  S
C2740      C2741   1.416       .  A
C2740      H2744   1.079       .  S
C2741      C2742   1.417       .  A
C2741      C2748   1.512       .  S
C2742      H2745   1.077       .  S
C2746      C2747   1.400       .  A
C2746      C2751   1.398       .  A
C2747      C2748   1.413       .  A
C2747      H2752   1.077       .  S
C2748      C2749   1.414       .  A
C2749      C2750   1.404       .  A
C2749      H2753   1.079       .  S
C2750      C2751   1.399       .  A
C2750      C2757   1.475       .  S
C2751      H2754   1.084       .  S
C2755      C2756   1.406       .  A
C2755      C2801   1.469       .  S
C2756      C2757   1.398       .  A
C2756      H2761   1.085       .  S
C2757      C2758   1.395       .  A
C2758      C2759   1.402       .  A
C2758      H2762   1.085       .  S
C2760      H2763   1.083   1_545  S
C2764      C2769   1.405       .  A
C2764      C2796   1.460       .  S
C2765      H2770   1.084       .  S
C2766      C2767   1.399       .  A
C2767      C2768   1.397       .  A
C2767      H2771   1.085       .  S
C2768      C2769   1.397       .  A
C2768      C2843   1.470       .  S
C2769      H2772   1.084       .  S
Zr2773     O2774   2.442       .  S
Zr2773     O2775   2.449       .  S
Zr2773     O2776   2.437       .  S
Zr2773     O2779   2.440       .  S
Zr2773     O2781   2.382       .  S
Zr2773     O2783   2.414       .  S
Zr2773     O2784   2.397       .  S
O2774      H2830   0.991       .  S
O2774      H2838   0.990       .  S
O2776      C3205   1.283       .  A
O2777     Zr2787   2.418       .  S
O2778     Zr2786   2.430       .  S
O2778      C2797   1.284       .  A
O2779      C2796   1.285       .  A
O2780     Zr2788   2.394       .  S
O2780      C2795   1.276       .  A
O2781     Zr3194   2.396       .  S
O2782     Zr2787   2.392       .  S
O2782     Zr2788   2.378       .  S
O2782      H2817   0.966       .  S
O2783     Zr3194   2.401       .  S
O2783      H2820   0.964       .  S
Zr2785     O2810   2.441       .  S
Zr2785     O2804   2.454       .  S
Zr2785     O2812   2.452       .  S
Zr2785     O3208   2.452       .  S
Zr2785     O2794   2.384       .  S
Zr2786     O2798   2.435       .  S
Zr2786     O3189   2.396       .  S
Zr2786     O3191   2.401   1_554  S
Zr2787     O2789   2.435       .  S
Zr2787     O2811   2.438       .  S
Zr2787     O2791   2.395       .  S
Zr2788     O2814   2.434       .  S
Zr2788     O3223   2.432       .  S
Zr2788     O3198   2.437       .  S
Zr2788     O2791   2.390       .  S
Zr2788     O3200   2.376       .  S
O2789      H2826   0.990       .  S
O2790     Zr3196   2.437   1_554  S
O2790      H2821   0.990       .  S
O2790      H2835   0.990       .  S
O2792     Zr3196   2.376       .  S
O2792      H2818   0.964   1_656  S
O2793     Zr2803   2.380       .  S
O2794      H2819   0.965       .  S
C2797      C2848   1.465       .  S
C2797      O3184   1.283   1_554  A
O2798      H2834   0.990   1_565  S
O2800     Zr3193   2.452   1_554  S
O2800      C2801   1.288       .  A
Zr2803     O2806   2.438       .  S
Zr2803     O2807   2.440       .  S
Zr2803     O2808   2.392       .  S
O2805      H2822   0.991       .  S
O2805      H2837   0.990       .  S
O2806      H2823   0.990       .  S
O2807      H2827   0.990       .  S
O2807      H2836   0.990       .  S
O2808      C2809   1.277       .  A
O2810      H2829   0.992       .  S
O2810      H3241   0.989       .  S
O2811      H2825   0.990       .  S
O2811      H2832   0.990       .  S
O2812      C2816   1.287       .  A
O2813      C2816   1.279       .  A
O2814      H2824   0.990       .  S
O2815     Zr3196   2.432   1_554  S
O2815      H2828   0.990   1_554  S
H2833      O3218   0.989       .  S
C2839      C2840   1.404       .  A
C2839      C2844   1.399       .  A
C2840      C2841   1.414       .  A
C2840      H2845   1.079       .  S
C2841      C2842   1.412       .  A
C2841      C2850   1.511       .  S
C2842      C2843   1.400       .  A
C2842      H2846   1.077       .  S
C2843      C2844   1.398       .  A
C2844      H2847   1.084       .  S
C2848      C2849   1.398       .  A
C2848      C3261   1.396       .  A
C2849      C2850   1.416       .  A
C2849      H2854   1.077       .  S
C2850      C2851   1.416       .  A
C2851      C2852   1.404       .  A
C2851      H2855   1.079       .  S
C2852      C3261   1.395       .  A
C2853      C3256   1.396       .  A
C2853      C3260   1.395       .  A
C2853      H2856   1.085       .  S
C2857      C2858   1.405       .  A
C2857      C2862   1.406       .  A
C2857      C2898   1.460       .  S
C2858      C2859   1.397       .  A
C2858      H2863   1.084       .  S
C2859      C2860   1.396       .  A
C2859      C2941   1.470       .  S
C2860      C2861   1.399       .  A
C2860      H2864   1.085       .  S
C2861      C2862   1.403       .  A
C2861      C3101   1.466       .  S
C2862      H2865   1.084       .  S
C2866      C2867   1.409       .  A
C2866      C2903   1.469       .  S
C2867      H2872   1.083       .  S
C2868      C2869   1.402       .  A
C2868      C3115   1.469       .  S
C2869      C2870   1.395       .  A
C2869      H2873   1.085       .  S
C2870      C2871   1.398   1_556  A
C2870      C3054   1.475       .  S
Zr2875     O2876   2.443       .  S
Zr2875     O2877   2.449       .  S
Zr2875     O2878   2.437       .  S
Zr2875     O2881   2.442       .  S
Zr2875     O2883   2.382       .  S
Zr2875     O2884   2.387       .  S
Zr2875     O2885   2.415       .  S
Zr2875     O2886   2.397       .  S
O2876      H2932   0.991       .  S
O2876      H2940   0.990       .  S
O2877      C2897   1.284       .  A
O2878      C2899   1.283       .  A
O2879     Zr2889   2.416       .  S
O2879      C2898   1.280       .  A
O2880     Zr2888   2.430       .  S
O2880      C2899   1.284       .  A
O2881      C2898   1.285       .  A
O2882     Zr2890   2.394       .  S
O2882      C2897   1.277       .  A
O2883     Zr2888   2.397       .  S
O2883     Zr2890   2.383       .  S
O2884     Zr2889   2.392       .  S
O2884     Zr2890   2.378       .  S
O2884      H2919   0.966       .  S
O2885     Zr2888   2.402       .  S
O2885     Zr2905   2.382       .  S
O2885      H2922   0.964       .  S
O2886     Zr2889   2.386       .  S
O2886     Zr2905   2.382       .  S
Zr2887     O2912   2.441       .  S
Zr2887     O2906   2.454       .  S
Zr2887     O2914   2.454       .  S
Zr2887     O2902   2.453       .  S
Zr2887     O2893   2.407       .  S
Zr2887     O2894   2.414       .  S
Zr2887     O2895   2.386       .  S
Zr2887     O2896   2.384       .  S
Zr2888     O2907   2.436       .  S
Zr2888     O2900   2.435       .  S
Zr2888     O2901   2.434       .  S
Zr2888     O2894   2.396       .  S
Zr2888     O2895   2.399       .  S
Zr2889     O2891   2.435       .  S
Zr2889     O2913   2.438       .  S
Zr2889     O2915   2.410       .  S
Zr2889     O2893   2.395       .  S
Zr2889     O2896   2.395       .  S
Zr2890     O2916   2.434       .  S
Zr2890     O2917   2.432       .  S
Zr2890     O2892   2.437       .  S
Zr2890     O2893   2.389       .  S
Zr2890     O2894   2.377       .  S
O2891      H2928   0.990       .  S
O2892      H2923   0.990       .  S
O2892      H2937   0.990       .  S
O2894      H2920   0.964       .  S
O2895     Zr2905   2.380       .  S
O2896     Zr2905   2.376       .  S
O2896      H2921   0.966       .  S
C2897      C3063   1.465       .  S
C2899      C2950   1.465       .  S
O2900      H2936   0.990       .  S
O2901      C2903   1.284       .  A
O2902      C2903   1.288       .  A
O2904     Zr2905   2.436       .  S
O2904      H2933   0.991       .  S
Zr2905     O2908   2.438       .  S
Zr2905     O2909   2.440       .  S
Zr2905     O2910   2.393       .  S
O2906      C2911   1.285       .  A
O2907      H2924   0.991       .  S
O2907      H2939   0.990       .  S
O2908      H2925   0.990       .  S
O2909      H2929   0.990       .  S
O2909      H2938   0.990       .  S
O2910      C2911   1.277       .  A
C2911      C3074   1.469       .  S
O2912      H2931   0.992       .  S
O2912      H2935   0.989       .  S
O2913      H2927   0.990       .  S
O2913      H2934   0.990       .  S
O2914      C2918   1.287       .  A
O2915      C2918   1.279       .  A
O2916      H2926   0.990       .  S
O2917      H2930   0.990       .  S
C2918      C3047   1.470       .  S
C2941      C2942   1.399       .  A
C2941      C2946   1.397       .  A
C2942      H2947   1.077       .  S
C2943      C2952   1.511       .  S
C2944      C2945   1.404       .  A
C2944      H2948   1.079       .  S
C2945      C2946   1.399       .  A
C2945      C2963   1.475       .  S
C2946      H2949   1.084       .  S
C2950      C2951   1.398       .  A
C2950      C2955   1.396       .  A
C2951      C2952   1.416       .  A
C2951      H2956   1.077       .  S
C2952      C2953   1.416       .  A
C2953      C2954   1.405       .  A
C2953      H2957   1.079       .  S
C2954      C2955   1.395       .  A
C2954      C3020   1.470       .  S
C2955      H2958   1.085       .  S
C2959      C2964   1.405       .  A
C2959      C3005   1.469       .  S
C2960      H2965   1.083       .  S
C2961      C2962   1.402       .  A
C2961      C3217   1.469       .  S
C2962      C2963   1.395       .  A
C2962      H2966   1.085       .  S
C2963      C2964   1.398       .  A
C2964      H2967   1.085       .  S
C2968      C3000   1.460       .  S
C2969      C2970   1.397   1_554  A
C2970      C2971   1.397       .  A
C2970      C3052   1.470       .  S
C2971      C2972   1.399   1_556  A
C2971      H2975   1.085       .  S
C2972      C3203   1.465   1_554  S
C2973      H2976   1.084       .  S
Zr2977     O2978   2.443       .  S
Zr2977     O2979   2.450       .  S
Zr2977     O2980   2.437       .  S
Zr2977     O2983   2.440       .  S
Zr2977     O2985   2.382       .  S
Zr2977     O2987   2.415       .  S
Zr2977     O2988   2.398       .  S
O2978      H3034   0.991       .  S
O2978      H3042   0.990       .  S
O2980      C3001   1.282       .  A
O2981     Zr2991   2.417       .  S
O2982     Zr2990   2.430       .  S
O2982      C3001   1.284       .  A
O2983      C3000   1.285       .  A
O2984     Zr2992   2.393       .  S
O2984      C2999   1.276       .  A
O2985     Zr2990   2.397       .  S
O2986     Zr2991   2.392       .  S
O2986     Zr2992   2.378       .  S
O2986      H3021   0.966       .  S
O2987     Zr2990   2.402       .  S
O2987     Zr3007   2.383       .  S
O2987      H3024   0.964       .  S
O2988     Zr3007   2.382       .  S
Zr2989     O3014   2.441       .  S
Zr2989     O3008   2.454       .  S
Zr2989     O3016   2.452       .  S
Zr2989     O3004   2.452       .  S
Zr2989     O2995   2.407       .  S
Zr2989     O2996   2.413       .  S
Zr2989     O2998   2.384       .  S
Zr2990     O3009   2.437       .  S
Zr2990     O3002   2.434       .  S
Zr2990     O3003   2.433       .  S
Zr2990     O2997   2.399       .  S
Zr2991     O2993   2.435       .  S
Zr2991     O3015   2.438       .  S
Zr2991     O3017   2.410       .  S
Zr2991     O2995   2.395       .  S
Zr2991     O2998   2.395       .  S
Zr2992     O3018   2.434       .  S
Zr2992     O3019   2.431       .  S
Zr2992     O2994   2.437       .  S
Zr2992     O2995   2.389       .  S
Zr2992     O2996   2.376       .  S
O2993      H3030   0.990       .  S
O2994      H3025   0.990       .  S
O2994      H3039   0.990       .  S
O2996      H3022   0.964       .  S
O2997     Zr3007   2.380       .  S
O2998      H3023   0.966       .  S
C2999      C3174   1.465       .  S
C3001      C3043   1.464       .  S
O3002      H3038   0.990       .  S
O3004      C3005   1.287       .  A
O3006     Zr3007   2.436       .  S
O3006      H3035   0.991       .  S
Zr3007     O3010   2.438       .  S
Zr3007     O3011   2.440       .  S
Zr3007     O3012   2.394       .  S
O3009      H3026   0.991       .  S
O3009      H3041   0.990       .  S
O3010      H3027   0.990       .  S
O3011      H3031   0.990       .  S
O3011      H3040   0.990       .  S
O3012      C3013   1.277       .  A
C3013      C3167   1.470       .  S
O3014      H3033   0.992       .  S
O3014      H3037   0.989       .  S
O3015      H3029   0.990       .  S
O3015      H3036   0.990       .  S
O3016      C3020   1.287       .  A
O3017      C3020   1.279       .  A
O3018      H3028   0.990       .  S
O3019      H3032   0.990       .  S
C3043      C3044   1.398       .  A
C3043      C3048   1.396       .  A
C3044      C3045   1.416       .  A
C3044      H3049   1.077       .  S
C3045      C3046   1.416       .  A
C3045      C3056   1.512       .  S
C3046      C3047   1.405       .  A
C3046      H3050   1.079       .  S
C3047      C3048   1.394       .  A
C3048      H3051   1.085       .  S
C3052      C3053   1.397       .  A
C3052      C3057   1.400       .  A
C3053      C3054   1.399       .  A
C3054      C3055   1.404       .  A
C3055      C3056   1.414       .  A
C3055      H3059   1.079       .  S
C3056      C3057   1.413       .  A
C3057      H3060   1.077       .  S
C3061      C3062   1.406       .  A
C3061      C3066   1.406       .  A
C3061      C3102   1.460       .  S
C3062      C3063   1.403       .  A
C3062      H3067   1.084       .  S
C3063      C3064   1.399       .  A
C3064      C3065   1.396       .  A
C3064      H3068   1.085       .  S
C3065      C3066   1.397       .  A
C3065      C3154   1.470       .  S
C3066      H3069   1.084       .  S
C3070      C3071   1.405       .  A
C3070      C3075   1.409       .  A
C3070      C3107   1.469       .  S
C3071      C3072   1.398       .  A
C3071      H3076   1.084       .  S
C3072      C3073   1.395       .  A
C3072      C3247   1.474       .  S
C3073      C3074   1.402       .  A
C3073      H3077   1.085       .  S
C3074      C3075   1.408       .  A
C3075      H3078   1.083       .  S
Zr3079     O3080   2.443       .  S
Zr3079     O3081   2.450       .  S
Zr3079     O3082   2.438       .  S
Zr3079     O3087   2.382       .  S
Zr3079     O3088   2.387       .  S
O3080      H3136   0.991       .  S
O3080      H3144   0.990       .  S
O3081      C3101   1.284       .  A
O3082      C3103   1.283       .  A
O3083      C3102   1.280       .  A
O3084      C3103   1.284       .  A
O3085      C3102   1.285       .  A
O3086     Zr3094   2.394       .  S
O3086      C3101   1.277       .  A
O3087     Zr3094   2.383       .  S
O3088     Zr3094   2.378       .  S
O3088      H3123   0.966       .  S
O3089     Zr3092   2.402       .  S
O3089     Zr3109   2.382       .  S
O3089      H3126   0.964       .  S
O3090     Zr3093   2.386       .  S
Zr3091     O3116   2.441       .  S
Zr3091     O3110   2.455       .  S
Zr3091     O3118   2.452       .  S
Zr3091     O3106   2.452       .  S
Zr3091     O3097   2.408       .  S
Zr3091     O3098   2.413       .  S
Zr3091     O3099   2.386       .  S
Zr3091     O3100   2.385       .  S
Zr3092     O3111   2.437       .  S
Zr3092     O3104   2.435       .  S
Zr3092     O3105   2.433       .  S
Zr3092     O3098   2.396       .  S
Zr3092     O3099   2.399       .  S
Zr3093     O3095   2.435       .  S
Zr3093     O3119   2.411       .  S
Zr3094     O3120   2.434       .  S
Zr3094     O3121   2.431       .  S
Zr3094     O3096   2.437       .  S
O3095      H3132   0.990       .  S
O3096      H3127   0.990       .  S
O3096      H3141   0.990       .  S
O3098      H3124   0.964       .  S
O3099     Zr3109   2.380       .  S
O3100     Zr3109   2.376       .  S
C3103      C3145   1.465       .  S
O3105      C3107   1.284       .  A
O3106      C3107   1.287       .  A
O3108      H3137   0.991       .  S
Zr3109     O3112   2.438       .  S
Zr3109     O3114   2.392       .  S
O3110      C3115   1.285       .  A
O3111      H3128   0.991       .  S
O3111      H3143   0.990       .  S
O3112      H3129   0.990       .  S
O3113      H3133   0.990       .  S
O3113      H3142   0.990       .  S
O3114      C3115   1.277       .  A
O3116      H3135   0.992       .  S
O3116      H3139   0.989       .  S
O3117      H3131   0.990       .  S
O3117      H3138   0.990       .  S
O3119      C3122   1.280       .  A
O3120      H3130   0.990       .  S
C3122      C3260   1.470       .  S
C3145      C3146   1.396       .  A
C3145      C3150   1.399       .  A
C3146      C3147   1.394       .  A
C3146      H3151   1.085       .  S
C3147      C3148   1.405       .  A
C3147      C3224   1.470       .  S
C3148      C3149   1.416       .  A
C3148      H3152   1.079       .  S
C3149      C3150   1.417       .  A
C3149      C3156   1.512       .  S
C3150      H3153   1.077       .  S
C3154      C3155   1.400       .  A
C3154      C3159   1.398       .  A
C3155      C3156   1.413       .  A
C3155      H3160   1.077       .  S
C3156      C3157   1.414       .  A
C3157      C3158   1.404       .  A
C3157      H3161   1.079       .  S
C3158      C3159   1.399       .  A
C3158      C3165   1.475       .  S
C3159      H3162   1.084       .  S
C3163      C3164   1.406       .  A
C3163      C3209   1.469       .  S
C3164      C3165   1.398       .  A
C3164      H3169   1.085       .  S
C3165      C3166   1.395       .  A
C3166      C3167   1.402       .  A
C3166      H3170   1.085       .  S
C3168      H3171   1.083   1_545  S
C3172      C3177   1.405       .  A
C3172      C3204   1.460       .  S
C3173      H3178   1.084       .  S
C3174      C3175   1.399       .  A
C3175      C3176   1.397       .  A
C3175      H3179   1.085       .  S
C3176      C3177   1.397       .  A
C3176      C3251   1.470       .  S
C3177      H3180   1.084       .  S
Zr3181     O3182   2.442       .  S
Zr3181     O3183   2.449       .  S
Zr3181     O3184   2.437       .  S
Zr3181     O3187   2.440       .  S
Zr3181     O3189   2.382   1_556  S
Zr3181     O3191   2.414       .  S
Zr3181     O3192   2.397       .  S
O3182      H3238   0.991       .  S
O3182      H3246   0.990       .  S
O3185     Zr3195   2.418       .  S
O3186     Zr3194   2.430       .  S
O3186      C3205   1.284       .  A
O3187      C3204   1.285       .  A
O3188     Zr3196   2.394       .  S
O3188      C3203   1.276       .  A
O3190     Zr3195   2.392       .  S
O3190     Zr3196   2.378       .  S
O3190      H3225   0.966       .  S
O3191      H3228   0.964       .  S
Zr3193     O3218   2.441       .  S
Zr3193     O3212   2.454       .  S
Zr3193     O3220   2.452       .  S
Zr3193     O3202   2.384       .  S
Zr3194     O3206   2.435       .  S
Zr3195     O3197   2.435       .  S
Zr3195     O3219   2.438       .  S
Zr3195     O3199   2.395       .  S
Zr3196     O3222   2.434       .  S
Zr3196     O3199   2.390       .  S
O3197      H3234   0.990       .  S
O3198      H3229   0.990       .  S
O3198      H3243   0.990       .  S
O3200      H3226   0.964   1_655  S
O3201     Zr3211   2.380       .  S
O3202      H3227   0.965       .  S
C3205      C3256   1.465       .  S
O3206      H3242   0.990   1_565  S
O3208      C3209   1.288       .  A
Zr3211     O3214   2.438       .  S
Zr3211     O3215   2.440       .  S
Zr3211     O3216   2.392       .  S
O3213      H3230   0.991       .  S
O3213      H3245   0.990       .  S
O3214      H3231   0.990       .  S
O3215      H3235   0.990       .  S
O3215      H3244   0.990       .  S
O3216      C3217   1.277       .  A
O3218      H3237   0.992       .  S
O3219      H3233   0.990       .  S
O3219      H3240   0.990       .  S
O3220      C3224   1.287       .  A
O3221      C3224   1.279       .  A
O3222      H3232   0.990       .  S
O3223      H3236   0.990       .  S
C3247      C3248   1.404       .  A
C3247      C3252   1.399       .  A
C3248      C3249   1.414       .  A
C3248      H3253   1.079       .  S
C3249      C3250   1.412       .  A
C3249      C3258   1.511       .  S
C3250      C3251   1.400       .  A
C3250      H3254   1.077       .  S
C3251      C3252   1.398       .  A
C3252      H3255   1.084       .  S
C3256      C3257   1.398       .  A
C3257      C3258   1.416       .  A
C3257      H3262   1.077       .  S
C3258      C3259   1.416       .  A
C3259      C3260   1.404       .  A
C3259      H3263   1.079       .  S
C3261      H3264   1.085   1_554  S
