geometry optimzed in LAMMPS
_audit_creation_date              2020-11-30 
_audit_creation_method            'lammps2cif' 
_symmetry_space_group_name_H-M    'P1' 
_symmetry_Int_Tables_number       1 
_symmetry_cell_setting            triclinic 
loop_ 
_symmetry_equiv_pos_as_xyz 
  x,y,z 
_cell_length_a                    44.20597682 
_cell_length_b                    43.96250242494245 
_cell_length_c                    35.73398773631329 
_cell_angle_alpha                 90.38741539495535 
_cell_angle_beta                  90.28685931759733 
_cell_angle_gamma                 89.35910286989218 
loop_ 
_atom_site_label 
_atom_site_type_symbol 
_atom_site_fract_x 
_atom_site_fract_y 
_atom_site_fract_z 
_atom_site_charge 
C1          C  0.83078153  0.37012478  0.90494864     0.80200
N2          N  0.83893029  0.34014621  0.90458983    -0.78100
C3          C  0.86871225  0.33153229  0.90357635     0.82600
N4          N  0.88970126  0.35365408  0.40478260    -0.78100
C5          C  0.88225725  0.38384049  0.40580142     0.82700
N6          N  0.85258860  0.39210344  0.40633468    -0.79800
C7          C  0.82617694  0.36328627  0.30645538     0.80200
N8          N  0.84653392  0.38627492  0.30879440    -0.78100
C9          C  0.87682942  0.38042806  0.30981390     0.82600
N10         N  0.88671325  0.35099962  0.30848630    -0.78100
C11         C  0.86685952  0.32756025  0.30618974     0.82700
N12         N  0.83658348  0.33395152  0.30503688    -0.79800
C13         C  0.60308198  0.83005332  0.54184353     0.80200
N14         N  0.58170104  0.85258208  0.54518411    -0.78100
C15         C  0.58984104  0.88226516  0.54911851     0.82600
N16         N  0.61974737  0.88916910  0.54992647    -0.78100
C17         C  0.64151242  0.86724344  0.54645597     0.82700
N18         N  0.63299944  0.83768253  0.54215377    -0.79800
C19         C  0.59648370  0.83221354  0.15286480     0.80200
N20         N  0.57378129  0.85326604  0.15001495    -0.78100
C21         C  0.57970228  0.88355820  0.14841656     0.79800
N22         N  0.60906280  0.89277671  0.14995108    -0.78100
C23         C  0.63231348  0.87213614  0.15265857     0.82700
N24         N  0.62571687  0.84188538  0.15411223    -0.79800
O25         O  0.92293622  0.94322021  0.46191853    -0.78500
C26         C  0.98371306  0.98036211  0.36971238     0.82500
O27         O  0.02573280  0.91974907  0.48932875    -0.79600
O28         O  0.05005330  0.02086656  0.45869534    -0.81100
O29         O  0.94670812  0.04971577  0.98410954    -0.80900
O30         O  0.91272312  0.98052365  0.50260143    -0.79500
Zn31       Zn  0.96570842  0.95187069  0.44302129     1.55700
O32         O  0.98220556  0.05336659  0.44004678    -0.80900
Cd33       Cd  0.95385282  0.00487657  0.00469353     1.59700
Cd34       Cd  0.01630514  0.96353293  0.00722364     1.59600
O35         O  0.96773559  0.00416058  0.06111061    -0.80900
O36         O  0.98466606  0.98319557  0.47369543    -1.91400
Cd37       Cd  0.00572448  0.01227640  0.44055478     1.59900
O38         O  0.00005343  0.96450326  0.06174253    -0.80900
O39         O  0.00416170  0.99615703  0.38576006    -0.79500
C40         C  0.01385260  0.90312697  0.46378105     0.83000
C41         C  0.90497929  0.95627213  0.48513480     0.82600
O42         O  0.96456018  0.96512353  0.38831979    -0.78500
C43         C  0.95946794  0.06484097  0.45718132     0.83500
O44         O  0.99113703  0.91263736  0.44471740    -0.78600
C45         C  0.98347666  0.98416072  0.07868512     0.83600
C46         C  0.06603796  0.01052259  0.48580029     0.83900
O47         O  0.05616738  0.98941800  0.50678552    -0.81000
O48         O  0.98288995  0.00827315  0.13851036    -0.78500
C49         C  0.94759857  0.05858535  0.23778825     0.82500
O50         O  0.05626937  0.99366900  0.23921929    -0.79600
O51         O  0.95697597  0.97908997  0.31175505    -0.81100
O52         O  0.92545593  0.93626904  0.19188695    -0.80900
O53         O  0.98203518  0.95734049  0.13577276    -0.79500
Zn54       Zn  0.99242138  0.01726238  0.19375201     1.55700
O55         O  0.90706390  0.96600733  0.23724451    -0.80900
Cd56       Cd  0.97201091  0.94549273  0.19065642     1.59700
Cd57       Cd  0.01754910  0.97048655  0.25532145     1.59600
O58         O  0.99594439  0.90616400  0.20783680    -0.80900
O59         O  0.98195917  0.98127994  0.22324157    -1.91400
Cd60       Cd  0.94596808  0.98939092  0.25600016     1.59900
O61         O  0.02693055  0.92400553  0.25200895    -0.80900
O62         O  0.93663899  0.03591563  0.25513657    -0.79500
C63         C  0.06074119  0.01452943  0.21522299     0.83000
C64         C  0.98257291  0.98330852  0.11987189     0.82600
O65         O  0.96867567  0.05497572  0.21357667    -0.78500
C66         C  0.90314738  0.94612498  0.21134832     0.83500
O67         O  0.03864447  0.02575684  0.19632428    -0.78600
C68         C  0.01660589  0.90191945  0.23256220     0.83600
C69         C  0.98259531  0.97969230  0.32855524     0.83900
O70         O  0.00757068  0.98010883  0.31082210    -0.81000
C71         C  0.09622023  0.63369975  0.40607659     0.80200
N72         N  0.12628555  0.62671266  0.40915734    -0.78100
C73         C  0.13606913  0.59719045  0.40907438     0.82600
N74         N  0.11538217  0.57462688  0.40637112    -0.78100
C75         C  0.08527417  0.58097996  0.40376674     0.82700
N76         N  0.07588906  0.61061987  0.40353954    -0.79800
C77         C  0.13117424  0.59320734  0.29828318     0.80200
N78         N  0.12204324  0.62285465  0.29474939    -0.78100
C79         C  0.09197103  0.63054139  0.29518840     0.82600
N80         N  0.07112307  0.60811779  0.29885415    -0.78100
C81         C  0.07976388  0.57847202  0.30228679     0.82700
N82         N  0.10979036  0.57137855  0.30197865    -0.79800
C83         C  0.33114532  0.09580877  0.54868501     0.80200
N84         N  0.35319743  0.07411627  0.55127241    -0.78100
C85         C  0.38301183  0.08134248  0.55044776     0.82600
N86         N  0.39080443  0.11114755  0.54726350    -0.78100
C87         C  0.36909966  0.13346153  0.54489684     0.82700
N88         N  0.33929273  0.12548427  0.54532907    -0.79800
C89         C  0.32591545  0.10261922  0.15310785     0.80200
N90         N  0.33404024  0.13260811  0.15336902    -0.78100
C91         C  0.36374037  0.14063648  0.15151891     0.82600
N92         N  0.38514971  0.11828917  0.14940882    -0.78100
C93         C  0.37783425  0.08835620  0.14932159     0.82700
N94         N  0.34806118  0.08064391  0.15132771    -0.79800
O95         O  0.46841325  0.46168368  0.39442230    -0.78500
C96         C  0.46266242  0.39900293  0.49266926     0.82500
O97         O  0.41539103  0.51715494  0.49283273    -0.79600
O98         O  0.50235524  0.46863582  0.06992822    -0.81100
O99         O  0.55499251  0.47965684  0.45258059    -0.80900
O100        O  0.49926838  0.50170724  0.39481861    -0.79500
Zn101      Zn  0.45443742  0.45908625  0.44897927     1.55700
O102        O  0.54940015  0.44456718  0.99756663    -0.80900
Cd103      Cd  0.51340621  0.50307903  0.45042531     1.59700
Cd104      Cd  0.46072160  0.51156493  0.01137601     1.59600
O105        O  0.51912996  0.54833011  0.46878080    -0.80900
O106        O  0.48253027  0.48158865  0.48105337    -1.91400
Cd107      Cd  0.50476168  0.45203035  0.01507586     1.59900
O108        O  0.48224351  0.55373672  0.00893392    -0.80900
O109        O  0.48330910  0.41008051  0.01420517    -0.79500
C110        C  0.40059251  0.50226186  0.46806554     0.83000
C111        C  0.48366932  0.48182507  0.37730906     0.82600
O112        O  0.45002375  0.41445403  0.46651463    -0.78500
C113        C  0.56518744  0.45776176  0.47256632     0.83500
O114        O  0.41276235  0.47990351  0.45043169    -0.78600
C115        C  0.50436417  0.56505714  0.49196381     0.83600
C116        C  0.48176371  0.48449274  0.08613620     0.83900
O117        O  0.46144342  0.49901621  0.06774072    -0.81000
O118        O  0.40791987  0.50101084  0.21790538    -0.78500
C119        C  0.48164599  0.48605826  0.12735811     0.82500
O120        O  0.46867940  0.41032394  0.24145026    -0.79600
O121        O  0.55595956  0.47518332  0.21848770    -0.81100
O122        O  0.49400708  0.56066310  0.24926517    -0.80900
O123        O  0.42518619  0.53040736  0.26410554    -0.79500
Zn124      Zn  0.44590887  0.47725075  0.19952635     1.55700
O125        O  0.52400049  0.54494771  0.20297093    -0.80900
Cd126      Cd  0.47158265  0.52091725  0.26535479     1.59700
Cd127      Cd  0.49237139  0.44879070  0.26109350     1.59600
O128        O  0.48239408  0.50856145  0.32009497    -0.80900
O129        O  0.48108688  0.48592757  0.23113468    -1.91400
Cd130      Cd  0.51664328  0.49779432  0.20019772     1.59900
O131        O  0.48305009  0.45761079  0.31761912    -0.80900
O132        O  0.50699975  0.48700968  0.14463497    -0.79500
C133        C  0.44704341  0.40815548  0.21763901     0.83000
C134        C  0.40333613  0.52071624  0.24391735     0.82600
O135        O  0.45637387  0.48609585  0.14471247    -0.78500
C136        C  0.51335590  0.56626232  0.22376770     0.83500
O137        O  0.43653851  0.43173365  0.20108222    -0.78600
C138        C  0.48298750  0.48263661  0.33610499     0.83600
C139        C  0.56096781  0.45321740  0.24108757     0.83900
O140        O  0.53928559  0.44031595  0.25822223    -0.81000
C141        C  0.37360654  0.17317169  0.15405311    -0.03200
C142        C  0.40427026  0.18029056  0.14871930    -0.05800
C143        C  0.41494557  0.20974598  0.15510575    -0.20900
C144        C  0.39543533  0.23335986  0.16671791     0.24800
C145        C  0.36439725  0.22677465  0.17049895    -0.18500
C146        C  0.35363610  0.19703212  0.16417708    -0.08400
C147        C  0.40910705  0.26354139  0.17678808    -0.18700
C148        C  0.39379570  0.29027693  0.17949724    -0.23500
C149        C  0.40842690  0.32001684  0.18944039     0.26900
C150        C  0.39505509  0.34725723  0.17685907    -0.20300
C151        C  0.40762038  0.37558511  0.18590748    -0.09900
C152        C  0.43376057  0.37768935  0.20846762    -0.10500
C153        C  0.44700031  0.35042721  0.22155085    -0.03400
C154        C  0.43457835  0.32198589  0.21211018    -0.18500
H155        H  0.42042097  0.16284281  0.14043951     0.10600
H156        H  0.43886606  0.21394637  0.15162603     0.10600
H157        H  0.34854162  0.24413464  0.17971560     0.10300
H158        H  0.32988661  0.19252490  0.16850943     0.11400
H159        H  0.43344628  0.26374173  0.18097784     0.11500
H160        H  0.36991270  0.29090504  0.17235819     0.13400
H161        H  0.37484267  0.34663086  0.15961955     0.09900
H162        H  0.39665893  0.39593961  0.17529422     0.12000
H163        H  0.46705804  0.35104133  0.23904257     0.08600
H164        H  0.44519724  0.30165969  0.22322957     0.11400
C165        C  0.45345750  0.36684184  0.49990253    -0.03200
C166        C  0.46935134  0.34925153  0.52646392    -0.05800
C167        C  0.46096278  0.31929364  0.53410982    -0.20900
C168        C  0.43619476  0.30587415  0.51588414     0.24800
C169        C  0.42025997  0.32329214  0.48904270    -0.18500
C170        C  0.42882828  0.35337383  0.48115170    -0.08400
C171        C  0.42882683  0.27344328  0.52488862    -0.18700
C172        C  0.40164564  0.26038009  0.51873778    -0.23500
C173        C  0.39429547  0.22792121  0.52791944     0.26900
C174        C  0.36377967  0.21922064  0.52860498    -0.20300
C175        C  0.35564156  0.18890848  0.53491205    -0.09900
C176        C  0.37782129  0.16612734  0.54044386    -0.10500
C177        C  0.40840120  0.17486620  0.54051425    -0.03400
C178        C  0.41655614  0.20525731  0.53428687    -0.18500
H179        H  0.48848999  0.35860759  0.54146244     0.10600
H180        H  0.47388819  0.30655150  0.55466071     0.10600
H181        H  0.40151993  0.31368776  0.47359804     0.10300
H182        H  0.41611225  0.36609887  0.46041675     0.11400
H183        H  0.44643755  0.26033527  0.53880433     0.11500
H184        H  0.38338544  0.27427525  0.50742371     0.13400
H185        H  0.34603398  0.23596194  0.52384799     0.09900
H186        H  0.33186109  0.18327974  0.53477607     0.12000
H187        H  0.42618816  0.15809697  0.54477376     0.08600
H188        H  0.44035737  0.21052736  0.53346664     0.11400
C189        C  0.16391764  0.58398749  0.29588262    -0.03200
C190        C  0.17254954  0.55336377  0.30109543    -0.05800
C191        C  0.20252642  0.54365041  0.29578210    -0.20900
C192        C  0.22510130  0.56413712  0.28540326     0.24800
C193        C  0.21685007  0.59505693  0.28132522    -0.18500
C194        C  0.18664166  0.60483004  0.28654330    -0.08400
C195        C  0.25615955  0.55168588  0.27690285    -0.18700
C196        C  0.28180476  0.56819155  0.27649070    -0.23500
C197        C  0.31256272  0.55500822  0.26795666     0.26900
C198        C  0.33832408  0.56940821  0.28253729    -0.20300
C199        C  0.36752884  0.55825868  0.27476974    -0.09900
C200        C  0.37199862  0.53261653  0.25149475    -0.10500
C201        C  0.34623497  0.51837695  0.23640531    -0.03400
C202        C  0.31691605  0.52932605  0.24461663    -0.18500
H203        H  0.15597086  0.53655419  0.30862046     0.10600
H204        H  0.20801535  0.51976032  0.29930524     0.10600
H205        H  0.23334062  0.61159875  0.27283528     0.10300
H206        H  0.18095822  0.62857146  0.28223229     0.11400
H207        H  0.25797710  0.52733484  0.27202422     0.11500
H208        H  0.28066399  0.59203405  0.28447028     0.13400
H209        H  0.33584829  0.58931625  0.30033523     0.09900
H210        H  0.38669821  0.56994130  0.28689313     0.12000
H211        H  0.34871094  0.49860911  0.21839620     0.08600
H212        H  0.29777880  0.51796164  0.23202910     0.11400
C213        C  0.36871019  0.51142152  0.45893425    -0.03200
C214        C  0.35249035  0.49626126  0.43056284    -0.05800
C215        C  0.32293590  0.50533161  0.42109310    -0.20900
C216        C  0.30861662  0.52989016  0.43949177     0.24800
C217        C  0.32467426  0.54486237  0.46829960    -0.18500
C218        C  0.35432087  0.53578819  0.47775805    -0.08400
C219        C  0.27676816  0.53816057  0.42841061    -0.18700
C220        C  0.26240631  0.56445725  0.43790867    -0.23500
C221        C  0.23026923  0.57249099  0.42771669     0.26900
C222        C  0.21944226  0.60202359  0.43591874    -0.20300
C223        C  0.18922338  0.61038469  0.42888091    -0.09900
C224        C  0.16879007  0.58930039  0.41375166    -0.10500
C225        C  0.17964532  0.55993054  0.40480868    -0.03400
C226        C  0.20990460  0.55160523  0.41160914    -0.18500
H227        H  0.36269242  0.47739874  0.41540421     0.10600
H228        H  0.31123359  0.49311355  0.39903635     0.10600
H229        H  0.31448239  0.56331961  0.48406904     0.10300
H230        H  0.36598193  0.54791736  0.49990124     0.11400
H231        H  0.26517646  0.52184276  0.41078971     0.11500
H232        H  0.27474187  0.58145190  0.45370788     0.13400
H233        H  0.23436920  0.61868957  0.44836247     0.09900
H234        H  0.18168080  0.63314968  0.43628310     0.12000
H235        H  0.16460338  0.54313746  0.39286755     0.08600
H236        H  0.21672859  0.52855871  0.40492872     0.11400
C237        C  0.09253649  0.02515414  0.20897345    -0.03200
C238        C  0.11637504  0.01408482  0.23154384    -0.05800
C239        C  0.14644568  0.02229116  0.22489324    -0.20900
C240        C  0.15395693  0.04196045  0.19556410     0.24800
C241        C  0.13011707  0.05345592  0.17309528    -0.18500
C242        C  0.09984492  0.04519778  0.17979663    -0.08400
C243        C  0.18692370  0.04867771  0.18917595    -0.18700
C244        C  0.19770650  0.07141622  0.16772174    -0.23500
C245        C  0.23083500  0.07834162  0.16345313     0.26900
C246        C  0.23939224  0.10796384  0.15367333    -0.20300
C247        C  0.27001121  0.11574765  0.15020797    -0.09900
C248        C  0.29318286  0.09398304  0.15576507    -0.10500
C249        C  0.28463100  0.06401101  0.16428188    -0.03400
C250        C  0.25395627  0.05630448  0.16819773    -0.18500
H251        H  0.11188413  0.99866750  0.25430691     0.10600
H252        H  0.16404939  0.01296162  0.24277669     0.10600
H253        H  0.13466581  0.06824924  0.14979882     0.10300
H254        H  0.08221722  0.05406506  0.16162786     0.11400
H255        H  0.20312123  0.03475696  0.20449398     0.11500
H256        H  0.18177652  0.08690349  0.15441865     0.13400
H257        H  0.22226456  0.12540151  0.14927284     0.09900
H258        H  0.27550997  0.13893700  0.14312011     0.12000
H259        H  0.30169681  0.04647526  0.16836554     0.08600
H260        H  0.24850324  0.03298475  0.17453421     0.11400
C261        C  0.02887626  0.87059879  0.23960958    -0.03200
C262        C  0.05499596  0.86642414  0.26177801    -0.05800
C263        C  0.06617834  0.83719190  0.26970985    -0.20900
C264        C  0.05143824  0.81112919  0.25626648     0.24800
C265        C  0.02549564  0.81521230  0.23358173    -0.18500
C266        C  0.01442041  0.84456959  0.22534323    -0.08400
C267        C  0.06445648  0.78041604  0.26578571    -0.18700
C268        C  0.04852643  0.75431024  0.26509504    -0.23500
C269        C  0.06092092  0.72336513  0.27493891     0.26900
C270        C  0.04041275  0.69945486  0.27921495    -0.20300
C271        C  0.05048707  0.66975168  0.28657892    -0.09900
C272        C  0.08156353  0.66278821  0.28967787    -0.10500
C273        C  0.10221571  0.68675990  0.28611492    -0.03400
C274        C  0.09208729  0.71663706  0.27880912    -0.18500
H275        H  0.06690813  0.88583351  0.27311147     0.10600
H276        H  0.08633881  0.83494389  0.28687474     0.10600
H277        H  0.01386371  0.79589896  0.22167929     0.10300
H278        H  0.99432875  0.84686208  0.20808908     0.11400
H279        H  0.08774935  0.77982973  0.27538399     0.11500
H280        H  0.02466436  0.75555534  0.25796125     0.13400
H281        H  0.01631720  0.70368833  0.27646409     0.09900
H282        H  0.03375558  0.65210476  0.28919091     0.12000
H283        H  0.12630340  0.68238013  0.28837840     0.08600
H284        H  0.10888601  0.73404036  0.27536862     0.11400
C285        C  0.09665459  0.02364286  0.49335118    -0.03200
C286        C  0.10883099  0.04565196  0.46948297    -0.05800
C287        C  0.13728426  0.05833766  0.47678406    -0.20900
C288        C  0.15460691  0.04947609  0.50809087     0.24800
C289        C  0.14227718  0.02766780  0.53231079    -0.18500
C290        C  0.11380261  0.01489283  0.52492327    -0.08400
C291        C  0.18503659  0.06381226  0.51421265    -0.18700
C292        C  0.20658930  0.05314903  0.53795358    -0.23500
C293        C  0.23787420  0.06587156  0.54173424     0.26900
C294        C  0.26080314  0.04709381  0.55662007    -0.20300
C295        C  0.29069543  0.05710512  0.55946268    -0.09900
C296        C  0.29867374  0.08649561  0.54800477    -0.10500
C297        C  0.27555550  0.10591600  0.53456815    -0.03400
C298        C  0.24552708  0.09572378  0.53132795    -0.18500
H299        H  0.09635674  0.05315069  0.44501171     0.10600
H300        H  0.14587738  0.07514023  0.45764398     0.10600
H301        H  0.15417205  0.02056455  0.55730464     0.10300
H302        H  0.10509009  0.99830302  0.54424133     0.11400
H303        H  0.19037903  0.08305063  0.49667521     0.11500
H304        H  0.20215706  0.03271476  0.55370672     0.13400
H305        H  0.25570733  0.02419039  0.56542106     0.09900
H306        H  0.30767534  0.04158475  0.57046348     0.12000
H307        H  0.28077385  0.12877444  0.52575902     0.08600
H308        H  0.22847876  0.11132186  0.52079069     0.11400
C309        C  0.08555470  0.66616209  0.40677361    -0.03200
C310        C  0.05484538  0.67357053  0.40092509    -0.05800
C311        C  0.04455920  0.70383378  0.40305719    -0.20900
C312        C  0.06449134  0.72764823  0.41150634     0.24800
C313        C  0.09541636  0.72042473  0.41626749    -0.18500
C314        C  0.10576375  0.69010877  0.41392559    -0.08400
C315        C  0.05195398  0.75943191  0.41488697    -0.18700
C316        C  0.06555721  0.78224075  0.43401996    -0.23500
C317        C  0.05185009  0.81327314  0.44037120     0.26900
C318        C  0.06345782  0.83157612  0.46940440    -0.20300
C319        C  0.05116654  0.86052004  0.47705572    -0.09900
C320        C  0.02690515  0.87219436  0.45571829    -0.10500
C321        C  0.01563352  0.85416543  0.42612576    -0.03400
C322        C  0.02795152  0.82517777  0.41845441    -0.18500
H323        H  0.03858788  0.65593362  0.39492324     0.10600
H324        H  0.02070331  0.70858561  0.39874330     0.10600
H325        H  0.11178858  0.73804236  0.42158391     0.10300
H326        H  0.12963152  0.68543408  0.41814608     0.11400
H327        H  0.02953618  0.76334055  0.40331822     0.11500
H328        H  0.08694266  0.77756000  0.44795995     0.13400
H329        H  0.08200320  0.82330629  0.48660688     0.09900
H330        H  0.06067697  0.87372593  0.49984250     0.12000
H331        H  0.99729647  0.86251475  0.40866595     0.08600
H332        H  0.01883533  0.81246108  0.39507383     0.11400
C333        C  0.55407351  0.90616983  0.14668718    -0.03200
C334        C  0.52421475  0.89638590  0.14066637    -0.05800
C335        C  0.49990124  0.91716782  0.14032722    -0.20900
C336        C  0.50445187  0.94847177  0.14596669     0.24800
C337        C  0.53441589  0.95839230  0.15176303    -0.18500
C338        C  0.55882779  0.93753541  0.15195245    -0.08400
C339        C  0.47718532  0.96935687  0.14657560    -0.18700
C340        C  0.47824991  0.00011563  0.14556653    -0.23500
C341        C  0.45131235  0.02140883  0.14632740     0.26900
C342        C  0.45662599  0.05266998  0.14245475    -0.20300
C343        C  0.43286169  0.07396310  0.14322392    -0.09900
C344        C  0.40268388  0.06485295  0.14791843    -0.10500
C345        C  0.39709891  0.03354061  0.15167085    -0.03400
C346        C  0.42106592  0.01207156  0.15098733    -0.18500
H347        H  0.51950720  0.87251378  0.13623192     0.10600
H348        H  0.47729002  0.90863220  0.13568912     0.10600
H349        H  0.53932420  0.98207902  0.15678794     0.10300
H350        H  0.58143585  0.94599776  0.15673674     0.11400
H351        H  0.45531981  0.95850247  0.14714307     0.11500
H352        H  0.50013587  0.01076167  0.14326855     0.13400
H353        H  0.47944397  0.06080436  0.13868548     0.09900
H354        H  0.43830955  0.09774501  0.13998522     0.12000
H355        H  0.37421396  0.02560110  0.15531628     0.08600
H356        H  0.41558497  0.98836769  0.15423558     0.11400
C357        C  0.58912830  0.79919427  0.15701291    -0.03200
C358        C  0.61181011  0.77655168  0.15482614    -0.05800
C359        C  0.60498087  0.74578716  0.16061216    -0.20900
C360        C  0.57541481  0.73670249  0.16931995     0.24800
C361        C  0.55253254  0.75926496  0.17054533    -0.18500
C362        C  0.55930232  0.78999385  0.16440469    -0.08400
C363        C  0.56937454  0.70356017  0.17597031    -0.18700
C364        C  0.54555319  0.69309078  0.19568035    -0.23500
C365        C  0.53921239  0.66010539  0.20322233     0.26900
C366        C  0.51747985  0.65295888  0.23035120    -0.20300
C367        C  0.50964160  0.62269088  0.23753481    -0.09900
C368        C  0.52313467  0.59843276  0.21758285    -0.10500
C369        C  0.54514107  0.60546908  0.19064787    -0.03400
C370        C  0.55307326  0.63581625  0.18352287    -0.18500
H371        H  0.63494995  0.78259617  0.14880123     0.10600
H372        H  0.62306319  0.72901594  0.15886457     0.10600
H373        H  0.52927784  0.75335006  0.17586524     0.10300
H374        H  0.54110693  0.80663656  0.16602077     0.11400
H375        H  0.58616409  0.68746940  0.16564155     0.11500
H376        H  0.53014375  0.70955153  0.20824581     0.13400
H377        H  0.50624993  0.67096929  0.24598681     0.09900
H378        H  0.49256191  0.61836188  0.25839055     0.12000
H379        H  0.55599393  0.58749251  0.17458419     0.08600
H380        H  0.56951675  0.63998760  0.16193599     0.11400
C381        C  0.87197092  0.93431544  0.20306745    -0.03200
C382        C  0.86761855  0.91143280  0.17581311    -0.05800
C383        C  0.83857046  0.90062053  0.16728442    -0.20900
C384        C  0.81275477  0.91253775  0.18523176     0.24800
C385        C  0.81699382  0.93526484  0.21278359    -0.18500
C386        C  0.84616994  0.94594543  0.22157774    -0.08400
C387        C  0.78218783  0.89983991  0.17534404    -0.18700
C388        C  0.75568870  0.91528675  0.17945652    -0.23500
C389        C  0.72488484  0.90317094  0.16948922     0.26900
C390        C  0.70063943  0.92390880  0.16540067    -0.20300
C391        C  0.67099929  0.91391285  0.15885192    -0.09900
C392        C  0.66443910  0.88269225  0.15649451    -0.10500
C393        C  0.68880655  0.86183571  0.15961468    -0.03400
C394        C  0.71858188  0.87188200  0.16603014    -0.18500
H395        H  0.88674762  0.90177249  0.16091342     0.10600
H396        H  0.83624642  0.88297410  0.14619290     0.10600
H397        H  0.79791221  0.94452960  0.22807816     0.10300
H398        H  0.84848830  0.96342567  0.24285538     0.11400
H399        H  0.78187757  0.87743892  0.16243551     0.11500
H400        H  0.75647793  0.93860695  0.18954995     0.13400
H401        H  0.70457041  0.94812172  0.16777797     0.09900
H402        H  0.65308503  0.93078735  0.15641904     0.12000
H403        H  0.68481536  0.83761209  0.15790576     0.08600
H404        H  0.73631653  0.85498364  0.16946535     0.11400
C405        C  0.40641615  0.05646516  0.55178120    -0.03200
C406        C  0.39779919  0.02638545  0.55921299    -0.05800
C407        C  0.41909960  0.00257919  0.55940937    -0.20900
C408        C  0.44980823  0.00786105  0.55227587     0.24800
C409        C  0.45861972  0.03801806  0.54489794    -0.18500
C410        C  0.43719076  0.06198359  0.54479650    -0.08400
C411        C  0.47118042  0.98100706  0.55202756    -0.18700
C412        C  0.50172696  0.98273872  0.55241224    -0.23500
C413        C  0.52318674  0.95590573  0.55229757     0.26900
C414        C  0.55429165  0.96153233  0.55605831    -0.20300
C415        C  0.57561723  0.93772436  0.55550958    -0.09900
C416        C  0.56661424  0.90729394  0.55107506    -0.10500
C417        C  0.53547200  0.90144500  0.54761658    -0.03400
C418        C  0.51403270  0.92536593  0.54814060    -0.18500
H419        H  0.37443189  0.02108915  0.56499726     0.10600
H420        H  0.41145025  0.97979187  0.56531061     0.10600
H421        H  0.48182936  0.04333403  0.53858716     0.10300
H422        H  0.44469600  0.08478238  0.53876462     0.11400
H423        H  0.46081859  0.95881758  0.55262733     0.11500
H424        H  0.51195453  0.00501046  0.55367109     0.13400
H425        H  0.56225511  0.98460610  0.55944388     0.09900
H426        H  0.59930243  0.94331524  0.55845190     0.12000
H427        H  0.52761298  0.87835293  0.54417190     0.08600
H428        H  0.49049840  0.91956628  0.54491868     0.11400
C429        C  0.59376868  0.79752725  0.53692655    -0.03200
C430        C  0.61525818  0.77459168  0.52880829    -0.05800
C431        C  0.60642030  0.74433720  0.52289154    -0.20900
C432        C  0.57587579  0.73583364  0.52510100     0.24800
C433        C  0.55433732  0.75873845  0.53371629    -0.18500
C434        C  0.56319301  0.78905871  0.53956606    -0.08400
C435        C  0.56779138  0.70322104  0.51691235    -0.18700
C436        C  0.54036050  0.69074146  0.52301422    -0.23500
C437        C  0.53241347  0.65817880  0.51464411     0.26900
C438        C  0.50660506  0.64597735  0.53152150    -0.20300
C439        C  0.49764695  0.61599317  0.52417898    -0.09900
C440        C  0.51406910  0.59715799  0.49935327    -0.10500
C441        C  0.53983359  0.60935044  0.48215752    -0.03400
C442        C  0.54888514  0.63942398  0.48962741    -0.18500
H443        H  0.63899760  0.78003763  0.52649704     0.10600
H444        H  0.62364942  0.72745993  0.51627099     0.10600
H445        H  0.53052010  0.75372476  0.53529880     0.10300
H446        H  0.54592060  0.80596081  0.54585244     0.11400
H447        H  0.58578673  0.68873184  0.50611058     0.11500
H448        H  0.52282556  0.70453074  0.53602097     0.13400
H449        H  0.49325733  0.65972625  0.55069886     0.09900
H450        H  0.47770053  0.60759819  0.53802074     0.12000
H451        H  0.55302568  0.59565952  0.46278104     0.08600
H452        H  0.56845232  0.64792189  0.47518686     0.11400
C453        C  0.67406649  0.87620430  0.54621745    -0.03200
C454        C  0.68278137  0.90414870  0.56211763    -0.05800
C455        C  0.71273999  0.91402639  0.56002114    -0.20900
C456        C  0.73490741  0.89671369  0.54120643     0.24800
C457        C  0.72650463  0.86824885  0.52613957    -0.18500
C458        C  0.69646822  0.85805846  0.52884990    -0.08400
C459        C  0.76622688  0.90941895  0.53836048    -0.18700
C460        C  0.78645465  0.90171971  0.51144075    -0.23500
C461        C  0.81693735  0.91615675  0.50632672     0.26900
C462        C  0.83656927  0.90392897  0.47906809    -0.20300
C463        C  0.86490224  0.91686707  0.47220695    -0.09900
C464        C  0.87457410  0.94267945  0.49228031    -0.10500
C465        C  0.85502500  0.95499221  0.51961312    -0.03400
C466        C  0.82666999  0.94199328  0.52657184    -0.18500
H467        H  0.66632204  0.91858551  0.57615890     0.10600
H468        H  0.71845299  0.93576840  0.57246555     0.10600
H469        H  0.74299437  0.85372190  0.51239576     0.10300
H470        H  0.69061931  0.83633908  0.51648447     0.11400
H471        H  0.77187932  0.92706086  0.55840980     0.11500
H472        H  0.78019355  0.88440407  0.49114830     0.13400
H473        H  0.82993631  0.88418661  0.46282148     0.09900
H474        H  0.87922151  0.90661391  0.45099080     0.12000
H475        H  0.86162956  0.97479046  0.53574916     0.08600
H476        H  0.81255880  0.95268268  0.54754738     0.11400
C477        C  0.89890954  0.40596656  0.31082834    -0.03200
C478        C  0.88896378  0.43637630  0.31412593    -0.05800
C479        C  0.90967286  0.46034423  0.31425758    -0.20900
C480        C  0.94097064  0.45480071  0.31100435     0.24800
C481        C  0.95093310  0.42425094  0.30806004    -0.18500
C482        C  0.93020617  0.40028538  0.30799048    -0.08400
C483        C  0.96196521  0.48154843  0.31113730    -0.18700
C484        C  0.99229294  0.47966965  0.30618841    -0.23500
C485        C  0.01357646  0.50607647  0.30626028     0.26900
C486        C  0.04481369  0.49976178  0.30725731    -0.20300
C487        C  0.06603935  0.52314640  0.30650263    -0.09900
C488        C  0.05677584  0.55380020  0.30449947    -0.10500
C489        C  0.02548486  0.56031691  0.30369777    -0.03400
C490        C  0.00413700  0.53680858  0.30452995    -0.18500
H491        H  0.86510124  0.44174962  0.31671910     0.10600
H492        H  0.90110914  0.48343193  0.31693815     0.10600
H493        H  0.97461316  0.41833241  0.30599909     0.10300
H494        H  0.93881202  0.37720354  0.30559352     0.11400
H495        H  0.95165086  0.50371640  0.31578829     0.11500
H496        H  0.00275130  0.45752842  0.30225138     0.13400
H497        H  0.05295622  0.47646540  0.30870256     0.09900
H498        H  0.08983154  0.51706317  0.30730937     0.12000
H499        H  0.01742448  0.58362177  0.30214224     0.08600
H500        H  0.98043774  0.54297877  0.30326967     0.11400
C501        C  0.93554692  0.08973686  0.24692960    -0.03200
C502        C  0.91088087  0.09323068  0.27145095    -0.05800
C503        C  0.89971654  0.12213110  0.28123073    -0.20900
C504        C  0.91301389  0.14857407  0.26732278     0.24800
C505        C  0.93760903  0.14528691  0.24255006    -0.18500
C506        C  0.94868694  0.11620806  0.23244298    -0.08400
C507        C  0.89955995  0.17882211  0.27812182    -0.18700
C508        C  0.91493231  0.20523425  0.27851047    -0.23500
C509        C  0.90141109  0.23559037  0.28899278     0.26900
C510        C  0.92088100  0.25954915  0.29837673    -0.20300
C511        C  0.90960054  0.28900216  0.30520453    -0.09900
C512        C  0.87840367  0.29551811  0.30260094    -0.10500
C513        C  0.85873480  0.27132981  0.29456477    -0.03400
C514        C  0.87004563  0.24180274  0.28771262    -0.18500
H515        H  0.90005507  0.07353066  0.28322882     0.10600
H516        H  0.88064296  0.12382267  0.30008111     0.10600
H517        H  0.94801135  0.16504572  0.23041023     0.10300
H518        H  0.96762920  0.11447314  0.21342664     0.11400
H519        H  0.87636072  0.17883227  0.28786275     0.11500
H520        H  0.93885894  0.20464736  0.27181292     0.13400
H521        H  0.94508782  0.25558957  0.29981248     0.09900
H522        H  0.92550919  0.30683517  0.31176050     0.12000
H523        H  0.83458668  0.27536264  0.29238269     0.08600
H524        H  0.85414440  0.22430404  0.28005181     0.11400
C525        C  0.79305172  0.37044845  0.30339160    -0.03200
C526        C  0.77158160  0.34724561  0.29919137    -0.05800
C527        C  0.74075530  0.35429376  0.29402616    -0.20900
C528        C  0.73047684  0.38467952  0.29260484     0.24800
C529        C  0.75180813  0.40786596  0.29825317    -0.18500
C530        C  0.78258292  0.40083585  0.30346582    -0.08400
C531        C  0.69746414  0.39120958  0.28575447    -0.18700
C532        C  0.68671098  0.41782796  0.27180975    -0.23500
C533        C  0.65404406  0.42520026  0.26366723     0.26900
C534        C  0.64726248  0.45172283  0.24332422    -0.20300
C535        C  0.61728141  0.46040524  0.23555020    -0.09900
C536        C  0.59292159  0.44296641  0.24816784    -0.10500
C537        C  0.59956353  0.41635513  0.26855926    -0.03400
C538        C  0.62968669  0.40752622  0.27617658    -0.18500
H539        H  0.77861041  0.32357561  0.29934930     0.10600
H540        H  0.72492186  0.33586870  0.29039556     0.10600
H541        H  0.74491771  0.43153342  0.29897314     0.10300
H542        H  0.79823650  0.41938168  0.30726825     0.11400
H543        H  0.68191935  0.37278631  0.29067759     0.11500
H544        H  0.70283891  0.43520396  0.26452161     0.13400
H545        H  0.66532939  0.46599640  0.23343038     0.09900
H546        H  0.61320946  0.48115113  0.22006423     0.12000
H547        H  0.58143191  0.40238424  0.27886878     0.08600
H548        H  0.63357285  0.38719677  0.29241011     0.11400
C549        C  0.90575436  0.40805928  0.40681183    -0.03200
C550        C  0.89700538  0.43867071  0.90618909    -0.05800
C551        C  0.91840364  0.46184869  0.90717570    -0.20900
C552        C  0.94925116  0.45543823  0.40827461     0.24800
C553        C  0.95843906  0.42461265  0.40576456    -0.18500
C554        C  0.93690606  0.40123138  0.40504808    -0.08400
C555        C  0.97066732  0.48164944  0.40953787    -0.18700
C556        C  0.00043612  0.48001107  0.40130206    -0.23500
C557        C  0.02126816  0.50670450  0.40230292     0.26900
C558        C  0.05259114  0.50112931  0.40351898    -0.20300
C559        C  0.07316280  0.52512543  0.40381803    -0.09900
C560        C  0.06305992  0.55559227  0.40268572    -0.10500
C561        C  0.03168991  0.56128873  0.40099406    -0.03400
C562        C  0.01104746  0.53720514  0.40070326    -0.18500
H563        H  0.87328978  0.44504786  0.90693802     0.10600
H564        H  0.91046275  0.48522685  0.90862822     0.10600
H565        H  0.98209171  0.41825571  0.40469803     0.10300
H566        H  0.94466545  0.37783672  0.40300195     0.11400
H567        H  0.96090586  0.50349201  0.91391399     0.11500
H568        H  0.01040345  0.45821794  0.39369104     0.13400
H569        H  0.06126268  0.47799767  0.40429657     0.09900
H570        H  0.09709325  0.51967959  0.40491420     0.12000
H571        H  0.02427974  0.58393890  0.90115729     0.08600
H572        H  0.98832865  0.54263234  0.90060661     0.11400
C573        C  0.94931170  0.09630610  0.44645475    -0.03200
C574        C  0.96704734  0.11356127  0.42193286    -0.05800
C575        C  0.95839638  0.14311759  0.41169211    -0.20900
C576        C  0.93154545  0.15647748  0.42514326     0.24800
C577        C  0.91458289  0.13900023  0.95058435    -0.18500
C578        C  0.92313728  0.10916281  0.96078863    -0.08400
C579        C  0.92476270  0.18904839  0.41531158    -0.18700
C580        C  0.89920905  0.20251319  0.91871368    -0.23500
C581        C  0.89290718  0.23560474  0.91117875     0.26900
C582        C  0.86304125  0.24494400  0.90324851    -0.20300
C583        C  0.85537673  0.27586738  0.89976326    -0.09900
C584        C  0.87593361  0.29885555  0.40434761    -0.10500
C585        C  0.90622557  0.28906263  0.40840502    -0.03400
C586        C  0.91364484  0.25797441  0.41141977    -0.18500
H587        H  0.98802349  0.10437655  0.41086151     0.10600
H588        H  0.97297875  0.15573168  0.39326357     0.10600
H589        H  0.89324313  0.14801908  0.96063699     0.10300
H590        H  0.90790311  0.09595075  0.97766924     0.11400
H591        H  0.94357087  0.20223120  0.40512887     0.11500
H592        H  0.87982043  0.18824299  0.92388345     0.13400
H593        H  0.84534246  0.22822509  0.90047469     0.09900
H594        H  0.83200582  0.28202720  0.89422663     0.12000
H595        H  0.92424139  0.30548778  0.41035480     0.08600
H596        H  0.93707230  0.25177839  0.41614226     0.11400
C597        C  0.79803456  0.38180335  0.40793144    -0.03200
C598        C  0.79111270  0.41298638  0.40424768    -0.05800
C599        C  0.76147283  0.42390516  0.40825474    -0.20900
C600        C  0.73772985  0.40418384  0.41654102     0.24800
C601        C  0.74550421  0.37076200  0.92300055    -0.18500
C602        C  0.77555845  0.36030437  0.91899918    -0.08400
C603        C  0.70671409  0.41760200  0.42169409    -0.18700
C604        C  0.68495153  0.40273774  0.94201788    -0.23500
C605        C  0.65441587  0.41716772  0.94863007     0.26900
C606        C  0.63733802  0.40754180  0.97939277    -0.20300
C607        C  0.60876339  0.42029072  0.98703309    -0.09900
C608        C  0.59628099  0.44529770  0.46536550    -0.10500
C609        C  0.61379768  0.45611027  0.43555630    -0.03400
C610        C  0.64237241  0.44337676  0.42766080    -0.18500
H611        H  0.80870882  0.42922066  0.39851430     0.10600
H612        H  0.75718905  0.44810745  0.40557827     0.10600
H613        H  0.72864005  0.35493513  0.93237069     0.10300
H614        H  0.78102697  0.33696418  0.92606557     0.11400
H615        H  0.70295749  0.44015278  0.41036627     0.11500
H616        H  0.69064909  0.38288995  0.95861865     0.13400
H617        H  0.64619700  0.39006763  0.99779623     0.09900
H618        H  0.59641632  0.41214684  0.01099491     0.12000
H619        H  0.60521563  0.47416038  0.41782926     0.08600
H620        H  0.65451408  0.45194949  0.40384539     0.11400
C621        C  0.83025664  0.37118079  0.40599087     0.80200
N622        N  0.83796856  0.34107509  0.40505900    -0.78100
C623        C  0.86767791  0.33203813  0.40428967     0.82600
N624        N  0.89040688  0.35343487  0.90335482    -0.78100
C625        C  0.88258597  0.38352979  0.90377988     0.82700
N626        N  0.85278147  0.39144742  0.90446995    -0.79800
C627        C  0.82628316  0.36334791  0.80483395     0.80200
N628        N  0.84661545  0.38639137  0.80670190    -0.78100
C629        C  0.87693080  0.38058775  0.80766925     0.82600
N630        N  0.88684641  0.35117294  0.80678219    -0.78100
C631        C  0.86702088  0.32770330  0.80491156     0.82700
N632        N  0.83673690  0.33402644  0.80379942    -0.79800
C633        C  0.60330408  0.82945900  0.04176460     0.80200
N634        N  0.58176323  0.85187289  0.04491489    -0.78100
C635        C  0.58973517  0.88162306  0.04858278     0.82600
N636        N  0.61955649  0.88871047  0.04922818    -0.78100
C637        C  0.64148666  0.86698259  0.04588229     0.82700
N638        N  0.63319831  0.83730573  0.04190531    -0.79800
C639        C  0.59655983  0.83230747  0.65346056     0.80200
N640        N  0.57379559  0.85334445  0.65090829    -0.78100
C641        C  0.57964487  0.88365228  0.64930878     0.79800
N642        N  0.60896825  0.89289698  0.65056625    -0.78100
C643        C  0.63228345  0.87234462  0.65296325     0.82700
N644        N  0.62581319  0.84204584  0.65439404    -0.79800
O645        O  0.92289671  0.94367096  0.96131411    -0.78500
C646        C  0.98438618  0.98042641  0.87000099     0.82500
O647        O  0.02590039  0.91897582  0.98911725    -0.79600
O648        O  0.05067903  0.02042525  0.95988354    -0.81100
O649        O  0.94570969  0.04996348  0.48266429    -0.80900
O650        O  0.91314393  0.98046243  0.00286697    -0.79500
Zn651      Zn  0.96601777  0.95158539  0.94309691     1.55700
O652        O  0.98331337  0.05334806  0.94168015    -0.80900
Cd653      Cd  0.95322830  0.00539618  0.50426421     1.59700
Cd654      Cd  0.01595406  0.96438946  0.50708465     1.59600
O655        O  0.96716154  0.00512545  0.56089583    -0.80900
O656        O  0.98517112  0.98270979  0.97392772    -1.91400
Cd657      Cd  0.00641680  0.01203026  0.94125393     1.59900
O658        O  0.99987860  0.96578919  0.56167888    -0.80900
O659        O  0.00465814  0.99642868  0.88613118    -0.79500
C660        C  0.01370035  0.90230859  0.96385476     0.83000
C661        C  0.90508540  0.95663730  0.98477015     0.82600
O662        O  0.96541553  0.96489565  0.88850773    -0.78500
C663        C  0.96071661  0.06482530  0.95908441     0.83500
O664        O  0.99089185  0.91189694  0.94499816    -0.78600
C665        C  0.98316329  0.98535755  0.57857734     0.83600
C666        C  0.06651743  0.00984969  0.98698890     0.83900
O667        O  0.05657428  0.98848312  0.00751412    -0.81000
O668        O  0.98278314  0.00936144  0.63866268    -0.78500
C669        C  0.94814361  0.05883114  0.73935200     0.82500
O670        O  0.05646594  0.99371904  0.73943396    -0.79600
O671        O  0.95752150  0.97892405  0.81215049    -0.81100
O672        O  0.92543815  0.93746869  0.69152527    -0.80900
O673        O  0.98194309  0.95844594  0.63561747    -0.79500
Zn674      Zn  0.99259666  0.01784633  0.69415349     1.55700
O675        O  0.90719382  0.96659109  0.73756151    -0.80900
Cd676      Cd  0.97203886  0.94625781  0.69045217     1.59700
Cd677      Cd  0.01768358  0.97067159  0.75540203     1.59600
O678        O  0.99564114  0.90661256  0.70744230    -0.80900
O679        O  0.98213901  0.98174013  0.72340908    -1.91400
Cd680      Cd  0.94631062  0.98955166  0.75654400     1.59900
O681        O  0.02654389  0.92410172  0.75193730    -0.80900
O682        O  0.93720643  0.03605392  0.75648396    -0.79500
C683        C  0.06096633  0.01475075  0.71568529     0.83000
C684        C  0.98237605  0.98447353  0.61983749     0.82600
O685        O  0.96902180  0.05538150  0.71483348    -0.78500
C686        C  0.90317356  0.94715619  0.71117481     0.83500
O687        O  0.03890475  0.02612831  0.69683664    -0.78600
C688        C  0.01612507  0.90213591  0.73234633     0.83600
C689        C  0.98317925  0.97980439  0.82883999     0.83900
O690        O  0.00807305  0.98043692  0.81097198    -0.81000
C691        C  0.09749314  0.63300874  0.90461471     0.80200
N692        N  0.12761437  0.62604528  0.90692459    -0.78100
C693        C  0.13739711  0.59650292  0.90697767     0.82600
N694        N  0.11663625  0.57393720  0.90518442    -0.78100
C695        C  0.08650144  0.58028853  0.90326918     0.82700
N696        N  0.07713965  0.60992163  0.90288872    -0.79800
C697        C  0.13098729  0.59356123  0.79828718     0.80200
N698        N  0.12180235  0.62321308  0.79485778    -0.78100
C699        C  0.09171141  0.63086114  0.79572653     0.82600
N700        N  0.07094156  0.60840831  0.79974721    -0.78100
C701        C  0.07966410  0.57878297  0.80307104     0.82700
N702        N  0.10966583  0.57173653  0.80230690    -0.79800
C703        C  0.33139624  0.09527190  0.05062057     0.80200
N704        N  0.35350761  0.07359855  0.05238661    -0.78100
C705        C  0.38329445  0.08089199  0.05111348     0.82600
N706        N  0.39099438  0.11075492  0.04834441    -0.78100
C707        C  0.36921268  0.13304026  0.04671484     0.82700
N708        N  0.33943946  0.12499223  0.04755935    -0.79800
C709        C  0.32614737  0.10269275  0.65454132     0.80200
N710        N  0.33408194  0.13271464  0.65473679    -0.78100
C711        C  0.36371450  0.14092425  0.65284016     0.82600
N712        N  0.38528578  0.11872756  0.65071662    -0.78100
C713        C  0.37813379  0.08874926  0.65073378     0.82700
N714        N  0.34841439  0.08085418  0.65282815    -0.79800
O715        O  0.46929380  0.46048898  0.89407947    -0.78500
C716        C  0.46299394  0.39816740  0.99339411     0.82500
O717        O  0.41639034  0.51642572  0.99126934    -0.79600
O718        O  0.50174427  0.46881079  0.56999299    -0.81100
O719        O  0.55524629  0.47786581  0.95145284    -0.80900
O720        O  0.49929810  0.50116511  0.89461717    -0.79500
Zn721      Zn  0.45531111  0.45778430  0.94862650     1.55700
O722        O  0.54904045  0.44583360  0.49804440    -0.80900
Cd723      Cd  0.51399895  0.50196346  0.95002082     1.59700
Cd724      Cd  0.46008290  0.51253335  0.51197726     1.59600
O725        O  0.52020556  0.54711081  0.96877741    -0.80900
O726        O  0.48318385  0.48052950  0.98073459    -1.91400
Cd727      Cd  0.50424296  0.45279185  0.51500513     1.59900
O728        O  0.48143393  0.55481606  0.50935821    -0.80900
O729        O  0.48323691  0.41062977  0.51332867    -0.79500
C730        C  0.40161265  0.50132213  0.96668253     0.83000
C731        C  0.48396972  0.48111096  0.87703816     0.82600
O732        O  0.45084286  0.41319605  0.96651890    -0.78500
C733        C  0.56538872  0.45602158  0.97157829     0.83500
O734        O  0.41364661  0.47858503  0.94965358    -0.78600
C735        C  0.50534720  0.56389429  0.99182725     0.83600
C736        C  0.48145550  0.48492047  0.58636563     0.83900
O737        O  0.46133110  0.49989276  0.56820778    -0.81000
O738        O  0.40774871  0.50147221  0.71744811    -0.78500
C739        C  0.48142545  0.48624605  0.62752837     0.82500
O740        O  0.46810923  0.41053502  0.74083539    -0.79600
O741        O  0.55578258  0.47474883  0.71858400    -0.81100
O742        O  0.49355742  0.56057396  0.74893178    -0.80900
O743        O  0.42488678  0.53029953  0.76423171    -0.79500
Zn744      Zn  0.44559618  0.47752896  0.69942581     1.55700
O745        O  0.52366257  0.54484647  0.70273823    -0.80900
Cd746      Cd  0.47132205  0.52079046  0.76536956     1.59700
Cd747      Cd  0.49203138  0.44865703  0.76072366     1.59600
O748        O  0.48240211  0.50820860  0.82002073    -0.80900
O749        O  0.48082598  0.48590776  0.73105265    -1.91400
Cd750      Cd  0.51650449  0.49761135  0.70026771     1.59900
O751        O  0.48280356  0.45725976  0.81721497    -0.80900
O752        O  0.50680495  0.48682113  0.64477060    -0.79500
C753        C  0.44627899  0.40853827  0.71728754     0.83000
C754        C  0.40310713  0.52094473  0.74367547     0.82600
O755        O  0.45615998  0.48649202  0.64485775    -0.78500
C756        C  0.51283103  0.56619989  0.72334483     0.83500
O757        O  0.43573981  0.43216327  0.70088660    -0.78600
C758        C  0.48298551  0.48219665  0.83585592     0.83600
C759        C  0.56067167  0.45265919  0.74106680     0.83900
O760        O  0.53888411  0.43982198  0.75805220    -0.81000
C761        C  0.37326763  0.17352838  0.65509055    -0.03200
C762        C  0.40357245  0.18106629  0.64803475    -0.05800
C763        C  0.41400936  0.21068743  0.65374703    -0.20900
C764        C  0.39461056  0.23400774  0.66650900     0.24800
C765        C  0.36389567  0.22693527  0.67225289    -0.18500
C766        C  0.35336778  0.19705358  0.66650273    -0.08400
C767        C  0.40819015  0.26442111  0.67552252    -0.18700
C768        C  0.39256014  0.29074913  0.68060069    -0.23500
C769        C  0.40724259  0.32055993  0.68995845     0.26900
C770        C  0.39241916  0.34784284  0.68018559    -0.20300
C771        C  0.40511720  0.37618728  0.68887933    -0.09900
C772        C  0.43282694  0.37817542  0.70834027    -0.10500
C773        C  0.44751237  0.35087814  0.71865278    -0.03400
C774        C  0.43497575  0.32247235  0.70951139    -0.18500
H775        H  0.41961628  0.16384464  0.63877802     0.10600
H776        H  0.43768366  0.21525095  0.64880429     0.10600
H777        H  0.34814016  0.24401673  0.68244068     0.10300
H778        H  0.32989878  0.19217591  0.67225125     0.11400
H779        H  0.43270318  0.26512962  0.67705277     0.11500
H780        H  0.36826211  0.29100020  0.67620124     0.13400
H781        H  0.37095835  0.34724245  0.66544888     0.09900
H782        H  0.39302546  0.39662563  0.68056567     0.12000
H783        H  0.46883308  0.35144540  0.73367766     0.08600
H784        H  0.44680888  0.30210952  0.71850084     0.11400
C785        C  0.45341972  0.36623261  0.00144552    -0.03200
C786        C  0.46669382  0.35020031  0.03144444    -0.05800
C787        C  0.45796751  0.32047628  0.03981913    -0.20900
C788        C  0.43547613  0.30572786  0.01882647     0.24800
C789        C  0.42213165  0.32157858  0.98862346    -0.18500
C790        C  0.43100961  0.35144841  0.98007097    -0.08400
C791        C  0.42786529  0.27351585  0.02856288    -0.18700
C792        C  0.40148989  0.25980075  0.01976996    -0.23500
C793        C  0.39404599  0.22751706  0.02955248     0.26900
C794        C  0.36360080  0.21858184  0.02916724    -0.20300
C795        C  0.35555291  0.18828080  0.03570633    -0.09900
C796        C  0.37777817  0.16574907  0.04239120    -0.10500
C797        C  0.40827015  0.17475344  0.04356321    -0.03400
C798        C  0.41631987  0.20515940  0.03723587    -0.18500
H799        H  0.48399056  0.36062280  0.04866163     0.10600
H800        H  0.46884167  0.30895382  0.06306302     0.10600
H801        H  0.40527097  0.31084853  0.97109151     0.10300
H802        H  0.42037077  0.36292342  0.95665529     0.11400
H803        H  0.44439399  0.26115624  0.04527258     0.11500
H804        H  0.38396370  0.27301646  0.00577730     0.13400
H805        H  0.34587047  0.23511683  0.02336498     0.09900
H806        H  0.33183656  0.18243116  0.03468418     0.12000
H807        H  0.42607088  0.15817854  0.04876529     0.08600
H808        H  0.44007986  0.21071069  0.03721877     0.11400
C809        C  0.16365699  0.58423164  0.79521796    -0.03200
C810        C  0.17188978  0.55322865  0.79715416    -0.05800
C811        C  0.20177598  0.54355887  0.79119345    -0.20900
C812        C  0.22469803  0.56443750  0.78352082     0.24800
C813        C  0.21685686  0.59565561  0.78275249    -0.18500
C814        C  0.18670129  0.60539674  0.78852853    -0.08400
C815        C  0.25572065  0.55219138  0.77445398    -0.18700
C816        C  0.28153467  0.56840098  0.77589777    -0.23500
C817        C  0.31229479  0.55533460  0.76714059     0.26900
C818        C  0.33795933  0.56903096  0.78298658    -0.20300
C819        C  0.36717992  0.55788494  0.77535512    -0.09900
C820        C  0.37177399  0.53292804  0.75102854    -0.10500
C821        C  0.34612132  0.51944319  0.73460653    -0.03400
C822        C  0.31677875  0.53041292  0.74261143    -0.18500
H823        H  0.15506331  0.53610331  0.80247678     0.10600
H824        H  0.20692707  0.51942432  0.79210787     0.10600
H825        H  0.23363362  0.61256194  0.77647250     0.10300
H826        H  0.18133830  0.62944008  0.78686266     0.11400
H827        H  0.25734205  0.52813911  0.76759757     0.11500
H828        H  0.28052910  0.59179240  0.78572726     0.13400
H829        H  0.33539038  0.58835809  0.80171164     0.09900
H830        H  0.38626139  0.56899788  0.78848640     0.12000
H831        H  0.34869503  0.50024659  0.71570236     0.08600
H832        H  0.29775539  0.51963715  0.72899737     0.11400
C833        C  0.36990675  0.51069720  0.95708833    -0.03200
C834        C  0.35244331  0.49331557  0.93201795    -0.05800
C835        C  0.32294382  0.50242012  0.92232899    -0.20900
C836        C  0.30997656  0.52925644  0.93711270     0.24800
C837        C  0.32739353  0.54661665  0.96242413    -0.18500
C838        C  0.35693266  0.53745345  0.97218400    -0.08400
C839        C  0.27801919  0.53732838  0.92632065    -0.18700
C840        C  0.26439552  0.56458604  0.93292017    -0.23500
C841        C  0.23203078  0.57220148  0.92343908     0.26900
C842        C  0.22196007  0.60255761  0.92727802    -0.20300
C843        C  0.19156667  0.61068622  0.92095747    -0.09900
C844        C  0.17022529  0.58858885  0.91085511    -0.10500
C845        C  0.18036205  0.55832575  0.90616228    -0.03400
C846        C  0.21073468  0.55019726  0.91240513    -0.18500
H847        H  0.36155425  0.47256990  0.91980808     0.10600
H848        H  0.31018161  0.48836243  0.90303492     0.10600
H849        H  0.31835955  0.56704534  0.97532038     0.10300
H850        H  0.36965065  0.55143650  0.99158258     0.11400
H851        H  0.26557980  0.51983705  0.91156820     0.11500
H852        H  0.27746570  0.58264774  0.94565498     0.13400
H853        H  0.23763245  0.62010015  0.93576431     0.09900
H854        H  0.18467920  0.63419816  0.92489776     0.12000
H855        H  0.16467097  0.54065560  0.89819342     0.08600
H856        H  0.21693612  0.52648923  0.90941662     0.11400
C857        C  0.09275324  0.02546669  0.70977390    -0.03200
C858        C  0.11618090  0.01584911  0.73394397    -0.05800
C859        C  0.14629936  0.02410409  0.72769844    -0.20900
C860        C  0.15423668  0.04233370  0.69715864     0.24800
C861        C  0.13079431  0.05237659  0.67307812    -0.18500
C862        C  0.10048048  0.04412427  0.67941298    -0.08400
C863        C  0.18723519  0.04905538  0.69117987    -0.18700
C864        C  0.19810063  0.07112921  0.66878200    -0.23500
C865        C  0.23120164  0.07814120  0.66471042     0.26900
C866        C  0.23965818  0.10754021  0.65388320    -0.20300
C867        C  0.27024920  0.11540062  0.65047744    -0.09900
C868        C  0.29347993  0.09391003  0.65711193    -0.10500
C869        C  0.28504613  0.06412037  0.66665346    -0.03400
C870        C  0.25438879  0.05635921  0.67056678    -0.18500
H871        H  0.11131828  0.00157494  0.75769916     0.10600
H872        H  0.16360184  0.01593768  0.74683827     0.10600
H873        H  0.13571888  0.06596436  0.64880310     0.10300
H874        H  0.08317543  0.05180324  0.66000322     0.11400
H875        H  0.20332411  0.03581628  0.70755026     0.11500
H876        H  0.18221547  0.08605017  0.65445961     0.13400
H877        H  0.22246908  0.12475321  0.64860864     0.09900
H878        H  0.27568452  0.13842562  0.64256520     0.12000
H879        H  0.30218687  0.04681082  0.67161495     0.08600
H880        H  0.24899031  0.03319604  0.67777332     0.11400
C881        C  0.02808878  0.87069632  0.73950492    -0.03200
C882        C  0.05374179  0.86633953  0.76244096    -0.05800
C883        C  0.06467787  0.83705619  0.77052204    -0.20900
C884        C  0.05017140  0.81108412  0.75644297     0.24800
C885        C  0.02464910  0.81531259  0.73307156    -0.18500
C886        C  0.01381142  0.84475241  0.72467995    -0.08400
C887        C  0.06310195  0.78034560  0.76601539    -0.18700
C888        C  0.04736884  0.75413976  0.76464543    -0.23500
C889        C  0.05997014  0.72336087  0.77482043     0.26900
C890        C  0.03963325  0.69964323  0.78122337    -0.20300
C891        C  0.04997389  0.67007267  0.78890139    -0.09900
C892        C  0.08113388  0.66305449  0.79011592    -0.10500
C893        C  0.10162889  0.68686624  0.78438424    -0.03400
C894        C  0.09123479  0.71660349  0.77678281    -0.18500
H895        H  0.06549481  0.88565383  0.77427646     0.10600
H896        H  0.08449508  0.83469862  0.78826948     0.10600
H897        H  0.01320102  0.79605092  0.72075701     0.10300
H898        H  0.99406349  0.84717651  0.70685378     0.11400
H899        H  0.08618765  0.77977234  0.77640741     0.11500
H900        H  0.02359975  0.75520121  0.75699065     0.13400
H901        H  0.01547085  0.70393236  0.77995300     0.09900
H902        H  0.03335615  0.65255801  0.79325261     0.12000
H903        H  0.12576662  0.68243850  0.78504804     0.08600
H904        H  0.10784118  0.73387923  0.77145405     0.11400
C905        C  0.09701259  0.02304806  0.99515308    -0.03200
C906        C  0.10831557  0.04693427  0.97344984    -0.05800
C907        C  0.13664631  0.05966132  0.98134988    -0.20900
C908        C  0.15474782  0.04897252  0.01109894     0.24800
C909        C  0.14327734  0.02527361  0.03320677    -0.18500
C910        C  0.11489334  0.01249971  0.02524875    -0.08400
C911        C  0.18513376  0.06333138  0.01761256    -0.18700
C912        C  0.20691488  0.05234659  0.04083508    -0.23500
C913        C  0.23815369  0.06521199  0.04469161     0.26900
C914        C  0.26116634  0.04653035  0.05959726    -0.20300
C915        C  0.29106781  0.05658212  0.06215996    -0.09900
C916        C  0.29895209  0.08591970  0.05041482    -0.10500
C917        C  0.27575609  0.10527130  0.03708179    -0.03400
C918        C  0.24573600  0.09504795  0.03411947    -0.18500
H919        H  0.09523001  0.05591506  0.95024765     0.10600
H920        H  0.14453545  0.07794604  0.96386400     0.10600
H921        H  0.15579908  0.01654805  0.05691542     0.10300
H922        H  0.10688455  0.99438588  0.04289614     0.11400
H923        H  0.19019171  0.08305719  0.00079045     0.11500
H924        H  0.20271577  0.03164401  0.05613250     0.13400
H925        H  0.25613824  0.02366049  0.06858384     0.09900
H926        H  0.30812878  0.04114732  0.07315657     0.12000
H927        H  0.28091467  0.12809062  0.02806946     0.08600
H928        H  0.22867162  0.11062173  0.02358990     0.11400
C929        C  0.08672232  0.66543249  0.90548345    -0.03200
C930        C  0.05619658  0.67278829  0.89823849    -0.05800
C931        C  0.04564166  0.70293869  0.90078334    -0.20900
C932        C  0.06509076  0.72671070  0.91106093     0.24800
C933        C  0.09589331  0.71955248  0.91720723    -0.18500
C934        C  0.10652169  0.68933943  0.91441841    -0.08400
C935        C  0.05214496  0.75834712  0.91478961    -0.18700
C936        C  0.06529191  0.78121111  0.93435072    -0.23500
C937        C  0.05138622  0.81220383  0.94069646     0.26900
C938        C  0.06379558  0.83105226  0.96867160    -0.20300
C939        C  0.05157477  0.86003603  0.97624736    -0.09900
C940        C  0.02653902  0.87124518  0.95592119    -0.10500
C941        C  0.01433966  0.85263706  0.92747093    -0.03400
C942        C  0.02659118  0.82359004  0.91986417    -0.18500
H943        H  0.04028468  0.65518047  0.89078059     0.10600
H944        H  0.02192344  0.70761831  0.89532263     0.10600
H945        H  0.11197626  0.73711538  0.92398789     0.10300
H946        H  0.13024113  0.68468275  0.91981831     0.11400
H947        H  0.02985911  0.76209188  0.90279446     0.11500
H948        H  0.08665175  0.77670128  0.94841324     0.13400
H949        H  0.08300245  0.82322181  0.98505762     0.09900
H950        H  0.06181102  0.87367446  0.99814026     0.12000
H951        H  0.99531970  0.86057458  0.91085578     0.08600
H952        H  0.01667425  0.81045905  0.89737039     0.11400
C953        C  0.55405770  0.90633328  0.64809939    -0.03200
C954        C  0.52391066  0.89656832  0.64533056    -0.05800
C955        C  0.49975074  0.91752654  0.64551478    -0.20900
C956        C  0.50474322  0.94899387  0.64839721     0.24800
C957        C  0.53498496  0.95888671  0.65090185    -0.18500
C958        C  0.55922995  0.93784525  0.65063162    -0.08400
C959        C  0.47765088  0.97008465  0.64952139    -0.18700
C960        C  0.47873749  0.00078593  0.64707513    -0.23500
C961        C  0.45180681  0.02208116  0.64797681     0.26900
C962        C  0.45680528  0.05313043  0.64166792    -0.20300
C963        C  0.43296669  0.07436067  0.64233361    -0.09900
C964        C  0.40306022  0.06536426  0.64931779    -0.10500
C965        C  0.39780070  0.03427364  0.65550428    -0.03400
C966        C  0.42182634  0.01290018  0.65499762    -0.18500
H967        H  0.51884706  0.87258269  0.64315769     0.10600
H968        H  0.47690533  0.90899523  0.64347544     0.10600
H969        H  0.54028904  0.98271644  0.65358372     0.10300
H970        H  0.58207658  0.94632408  0.65279651     0.11400
H971        H  0.45579945  0.95936822  0.65172019     0.11500
H972        H  0.50052363  0.01132789  0.64327514     0.13400
H973        H  0.47940964  0.06112663  0.63602757     0.09900
H974        H  0.43810412  0.09797812  0.63714912     0.12000
H975        H  0.37513547  0.02645454  0.66106203     0.08600
H976        H  0.41659047  0.98939694  0.66029207     0.11400
C977        C  0.58919303  0.79925465  0.65775890    -0.03200
C978        C  0.61203997  0.77670146  0.65771100    -0.05800
C979        C  0.60507377  0.74596476  0.66358695    -0.20900
C980        C  0.57516745  0.73679834  0.67020981     0.24800
C981        C  0.55217807  0.75925031  0.66940908    -0.18500
C982        C  0.55909937  0.78994718  0.66320850    -0.08400
C983        C  0.56890698  0.70366784  0.67673865    -0.18700
C984        C  0.54434174  0.69322809  0.69503228    -0.23500
C985        C  0.53801203  0.66023329  0.70248413     0.26900
C986        C  0.51690002  0.65292737  0.73027756    -0.20300
C987        C  0.50926162  0.62260072  0.73749003    -0.09900
C988        C  0.52229334  0.59845132  0.71686248    -0.10500
C989        C  0.54351734  0.60568492  0.68904567    -0.03400
C990        C  0.55127510  0.63609264  0.68192729    -0.18500
H991        H  0.63541492  0.78279075  0.65333258     0.10600
H992        H  0.62328559  0.72927706  0.66350172     0.10600
H993        H  0.52873422  0.75324365  0.67313318     0.10300
H994        H  0.54075825  0.80647627  0.66314992     0.11400
H995        H  0.58612669  0.68750579  0.66768170     0.11500
H996        H  0.52845016  0.70967811  0.70668401     0.13400
H997        H  0.50609626  0.67085008  0.74650880     0.09900
H998        H  0.49275029  0.61813677  0.75899092     0.12000
H999        H  0.55389625  0.58782429  0.67232649     0.08600
H1000       H  0.56708734  0.64050557  0.65968274     0.11400
C1001       C  0.87194682  0.93567778  0.70245426    -0.03200
C1002       C  0.86750210  0.91382775  0.67397156    -0.05800
C1003       C  0.83844500  0.90330591  0.66498200    -0.20900
C1004       C  0.81267677  0.91440500  0.68377947     0.24800
C1005       C  0.81701281  0.93613412  0.71254611    -0.18500
C1006       C  0.84620915  0.94659573  0.72170355    -0.08400
C1007       C  0.78213747  0.90184578  0.67330290    -0.18700
C1008       C  0.75537505  0.91609007  0.68024481    -0.23500
C1009       C  0.72458443  0.90402416  0.67000391     0.26900
C1010       C  0.69964843  0.92415056  0.67131014    -0.20300
C1011       C  0.67010023  0.91402763  0.66464290    -0.09900
C1012       C  0.66427654  0.88320812  0.65685649    -0.10500
C1013       C  0.68924463  0.86302934  0.65459827    -0.03400
C1014       C  0.71898998  0.87325919  0.66099122    -0.18500
H1015       H  0.88657174  0.90476081  0.65842552     0.10600
H1016       H  0.83609037  0.88646706  0.64291620     0.10600
H1017       H  0.79804314  0.94479406  0.72853044     0.10300
H1018       H  0.84859910  0.96329758  0.74389788     0.11400
H1019       H  0.78204048  0.88055413  0.65779873     0.11500
H1020       H  0.75581943  0.93842948  0.69330950     0.13400
H1021       H  0.70297115  0.94793873  0.67807684     0.09900
H1022       H  0.65167422  0.93038242  0.66660342     0.12000
H1023       H  0.68577422  0.83916992  0.64844098     0.08600
H1024       H  0.73728024  0.85675966  0.65995696     0.11400
C1025       C  0.40673164  0.05602056  0.05144746    -0.03200
C1026       C  0.39795043  0.02559020  0.05594036    -0.05800
C1027       C  0.41927772  0.00183956  0.05534008    -0.20900
C1028       C  0.45018775  0.00751147  0.05037068     0.24800
C1029       C  0.45919070  0.03799852  0.04590876    -0.18500
C1030       C  0.43771012  0.06191837  0.04653201    -0.08400
C1031       C  0.47156598  0.98070979  0.04929645    -0.18700
C1032       C  0.50204552  0.98233988  0.05181042    -0.23500
C1033       C  0.52337510  0.95542673  0.05137232     0.26900
C1034       C  0.55420264  0.96062817  0.05831539    -0.20300
C1035       C  0.57539214  0.93671688  0.05787793    -0.09900
C1036       C  0.56651560  0.90661469  0.05042806    -0.10500
C1037       C  0.53564741  0.90117294  0.04372218    -0.03400
C1038       C  0.51435226  0.92521547  0.04403534    -0.18500
H1039       H  0.37442213  0.01994533  0.05998669     0.10600
H1040       H  0.41148250  0.97877530  0.05894262     0.10600
H1041       H  0.48260800  0.04362620  0.04139049     0.10300
H1042       H  0.44536566  0.08500690  0.04285156     0.11400
H1043       H  0.46119563  0.95855031  0.04758293     0.11500
H1044       H  0.51222539  0.00448134  0.05544114     0.13400
H1045       H  0.56203822  0.98342705  0.06422767     0.09900
H1046       H  0.59886844  0.94195010  0.06345303     0.12000
H1047       H  0.52794184  0.87835120  0.03775306     0.08600
H1048       H  0.49105421  0.91978135  0.03814095     0.11400
C1049       C  0.59415029  0.79683242  0.03713305    -0.03200
C1050       C  0.61567790  0.77401975  0.02867510    -0.05800
C1051       C  0.60695495  0.74370927  0.02285726    -0.20900
C1052       C  0.57649014  0.73499799  0.02552473     0.24800
C1053       C  0.55491948  0.75776561  0.03457239    -0.18500
C1054       C  0.56365956  0.78815159  0.04030427    -0.08400
C1055       C  0.56854335  0.70232549  0.01731934    -0.18700
C1056       C  0.54120879  0.68963091  0.02350778    -0.23500
C1057       C  0.53332923  0.65703281  0.01497712     0.26900
C1058       C  0.50699409  0.64503405  0.03083647    -0.20300
C1059       C  0.49807268  0.61505525  0.02334100    -0.09900
C1060       C  0.51507291  0.59597991  0.99939050    -0.10500
C1061       C  0.54137625  0.60794083  0.98322664    -0.03400
C1062       C  0.55038889  0.63801611  0.99084304    -0.18500
H1063       H  0.63935097  0.77961589  0.02596391     0.10600
H1064       H  0.62421525  0.72695118  0.01591622     0.10600
H1065       H  0.53115983  0.75259511  0.03657871     0.10300
H1066       H  0.54635745  0.80494292  0.04690435     0.11400
H1067       H  0.58658389  0.68801451  0.00630962     0.11500
H1068       H  0.52362994  0.70332966  0.03656640     0.13400
H1069       H  0.49317243  0.65894983  0.04930988     0.09900
H1070       H  0.47767866  0.60686117  0.03635373     0.12000
H1071       H  0.55503875  0.59405702  0.96456431     0.08600
H1072       H  0.57042701  0.64626677  0.97720289     0.11400
C1073       C  0.67390466  0.87646978  0.04523262    -0.03200
C1074       C  0.68191037  0.90536851  0.05899328    -0.05800
C1075       C  0.71155911  0.91592219  0.05608146    -0.20900
C1076       C  0.73423776  0.89825203  0.03877003     0.24800
C1077       C  0.72659920  0.86882978  0.02598300    -0.18500
C1078       C  0.69679822  0.85805021  0.02934226    -0.08400
C1079       C  0.76520706  0.91170668  0.03509559    -0.18700
C1080       C  0.78664720  0.90197780  0.01069459    -0.23500
C1081       C  0.81683665  0.91687243  0.00511352     0.26900
C1082       C  0.83463499  0.90763379  0.97443357    -0.20300
C1083       C  0.86297897  0.92058815  0.96775100    -0.09900
C1084       C  0.87450422  0.94338383  0.99150468    -0.10500
C1085       C  0.85681153  0.95270286  0.02228381    -0.03400
C1086       C  0.82850503  0.93956455  0.02916395    -0.18500
H1087       H  0.66509944  0.92012018  0.07186065     0.10600
H1088       H  0.71662400  0.93842541  0.06677187     0.10600
H1089       H  0.74345210  0.85401485  0.01344367     0.10300
H1090       H  0.69152408  0.83562057  0.01862696     0.11400
H1091       H  0.76950578  0.93180867  0.05190132     0.11500
H1092       H  0.78149607  0.88290026  0.99243587     0.13400
H1093       H  0.82655276  0.89023472  0.95536909     0.09900
H1094       H  0.87586658  0.91272964  0.94380624     0.12000
H1095       H  0.86505367  0.96990892  0.04149208     0.08600
H1096       H  0.81624792  0.94715154  0.05363219     0.11400
C1097       C  0.89900903  0.40612160  0.80839116    -0.03200
C1098       C  0.88898623  0.43658280  0.80988874    -0.05800
C1099       C  0.90968212  0.46053512  0.80982183    -0.20900
C1100       C  0.94105086  0.45492176  0.80830063     0.24800
C1101       C  0.95110736  0.42434588  0.80691743    -0.18500
C1102       C  0.93037959  0.40037832  0.80704913    -0.08400
C1103       C  0.96195208  0.48168200  0.80754604    -0.18700
C1104       C  0.99252399  0.47979330  0.80934001    -0.23500
C1105       C  0.01374483  0.50624156  0.80805682     0.26900
C1106       C  0.04500575  0.49999822  0.80867716    -0.20300
C1107       C  0.06616167  0.52342642  0.80747171    -0.09900
C1108       C  0.05679719  0.55405660  0.80556162    -0.10500
C1109       C  0.02551564  0.56051418  0.80527158    -0.03400
C1110       C  0.00424515  0.53698032  0.80651972    -0.18500
H1111       H  0.86506282  0.44202034  0.81111404     0.10600
H1112       H  0.90104823  0.48367499  0.81099111     0.10600
H1113       H  0.97483137  0.41846114  0.80539322     0.10300
H1114       H  0.93903549  0.37725639  0.80590164     0.11400
H1115       H  0.95123860  0.50387174  0.80545370     0.11500
H1116       H  0.00314744  0.45762394  0.81211124     0.13400
H1117       H  0.05322864  0.47673123  0.81015726     0.09900
H1118       H  0.08997283  0.51740078  0.80797015     0.12000
H1119       H  0.01739310  0.58381193  0.80401845     0.08600
H1120       H  0.98056941  0.54325006  0.80639816     0.11400
C1121       C  0.93627300  0.08991599  0.74906972    -0.03200
C1122       C  0.91220072  0.09332935  0.77451011    -0.05800
C1123       C  0.90105519  0.12219470  0.78448712    -0.20900
C1124       C  0.91381005  0.14864360  0.76984949     0.24800
C1125       C  0.93789527  0.14542581  0.74433088    -0.18500
C1126       C  0.94894644  0.11640449  0.73404591    -0.08400
C1127       C  0.90026348  0.17885636  0.78045948    -0.18700
C1128       C  0.91554706  0.20529773  0.78025864    -0.23500
C1129       C  0.90185901  0.23568252  0.78999720     0.26900
C1130       C  0.92110861  0.25963375  0.80005888    -0.20300
C1131       C  0.90969493  0.28913523  0.80609602    -0.09900
C1132       C  0.87860650  0.29566958  0.80197580    -0.10500
C1133       C  0.85913197  0.27149820  0.79316207    -0.03400
C1134       C  0.87057837  0.24192297  0.78711806    -0.18500
H1135       H  0.90178939  0.07360172  0.78678420     0.10600
H1136       H  0.88239422  0.12385923  0.80396143     0.10600
H1137       H  0.94784810  0.16520245  0.73166121     0.10300
H1138       H  0.96743556  0.11472699  0.71435493     0.11400
H1139       H  0.87709866  0.17890084  0.79036027     0.11500
H1140       H  0.93947962  0.20472728  0.77357929     0.13400
H1141       H  0.94524655  0.25561733  0.80266691     0.09900
H1142       H  0.92542072  0.30697675  0.81329691     0.12000
H1143       H  0.83508249  0.27558058  0.78973520     0.08600
H1144       H  0.85492975  0.22437850  0.77878440     0.11400
C1145       C  0.79310102  0.37037881  0.80218455    -0.03200
C1146       C  0.77167781  0.34707133  0.79848947    -0.05800
C1147       C  0.74074279  0.35396747  0.79401263    -0.20900
C1148       C  0.73030430  0.38430378  0.79279963     0.24800
C1149       C  0.75160889  0.40759072  0.79790889    -0.18500
C1150       C  0.78249494  0.40071592  0.80236860    -0.08400
C1151       C  0.69719405  0.39075300  0.78653537    -0.18700
C1152       C  0.68639658  0.41709131  0.77188344    -0.23500
C1153       C  0.65371427  0.42435861  0.76375386     0.26900
C1154       C  0.64698326  0.44963392  0.74114565    -0.20300
C1155       C  0.61701600  0.45833649  0.73334733    -0.09900
C1156       C  0.59259410  0.44218840  0.74818388    -0.10500
C1157       C  0.59919539  0.41676071  0.77081057    -0.03400
C1158       C  0.62932927  0.40791512  0.77849178    -0.18500
H1159       H  0.77881711  0.32343279  0.79853569     0.10600
H1160       H  0.72494656  0.33547141  0.79072945     0.10600
H1161       H  0.74459089  0.43122313  0.79877735     0.10300
H1162       H  0.79811022  0.41933737  0.80580545     0.11400
H1163       H  0.68162341  0.37248688  0.79221508     0.11500
H1164       H  0.70253678  0.43418747  0.76368684     0.13400
H1165       H  0.66509527  0.46292279  0.72946656     0.09900
H1166       H  0.61302559  0.47810539  0.71602261     0.12000
H1167       H  0.58104159  0.40381665  0.78292748     0.08600
H1168       H  0.63326906  0.38863596  0.79655701     0.11400
C1169       C  0.90596503  0.40788330  0.90429746    -0.03200
C1170       C  0.89681538  0.43883516  0.40949986    -0.05800
C1171       C  0.91817363  0.46201969  0.41030136    -0.20900
C1172       C  0.94953957  0.45523628  0.90615793     0.24800
C1173       C  0.95870277  0.42438949  0.90409687    -0.18500
C1174       C  0.93714728  0.40104608  0.90318987    -0.08400
C1175       C  0.97099047  0.48145215  0.90787485    -0.18700
C1176       C  0.00119659  0.47957486  0.90234382    -0.23500
C1177       C  0.02214349  0.50624920  0.90335731     0.26900
C1178       C  0.05348227  0.50054595  0.90400252    -0.20300
C1179       C  0.07418683  0.52444414  0.90387673    -0.09900
C1180       C  0.06421485  0.55495382  0.90298785    -0.10500
C1181       C  0.03285891  0.56079386  0.90217705    -0.03400
C1182       C  0.01209156  0.53683417  0.90226049    -0.18500
H1183       H  0.87312417  0.44522851  0.41085955     0.10600
H1184       H  0.91024459  0.48538292  0.41222524     0.10600
H1185       H  0.98233844  0.41794501  0.90352891     0.10300
H1186       H  0.94493673  0.37763811  0.90163690     0.11400
H1187       H  0.96099923  0.50350223  0.41749890     0.11500
H1188       H  0.01146106  0.45755527  0.89661568     0.13400
H1189       H  0.06207731  0.47737978  0.90444452     0.09900
H1190       H  0.09810716  0.51889356  0.90433711     0.12000
H1191       H  0.02302623  0.58439047  0.39965014     0.08600
H1192       H  0.98724098  0.54273626  0.39836137     0.11400
C1193       C  0.95104486  0.09658388  0.94925214    -0.03200
C1194       C  0.97002671  0.11466017  0.92723035    -0.05800
C1195       C  0.96165730  0.14436669  0.91740352    -0.20900
C1196       C  0.93386561  0.15703604  0.92873804     0.24800
C1197       C  0.91339154  0.13917263  0.44926514    -0.18500
C1198       C  0.92221448  0.10948356  0.45981199    -0.08400
C1199       C  0.92713010  0.18960787  0.91905460    -0.18700
C1200       C  0.89714100  0.20250926  0.41748060    -0.23500
C1201       C  0.89093684  0.23568133  0.41022169     0.26900
C1202       C  0.86085318  0.24547194  0.40473585    -0.20300
C1203       C  0.85344669  0.27650475  0.40175450    -0.09900
C1204       C  0.87738940  0.29851438  0.90417757    -0.10500
C1205       C  0.90753518  0.28918899  0.91062511    -0.03400
C1206       C  0.91519710  0.25822729  0.91426349    -0.18500
H1207       H  0.99171296  0.10596325  0.91777702     0.10600
H1208       H  0.97713376  0.15759433  0.90084547     0.10600
H1209       H  0.89281673  0.14870192  0.46092031     0.10300
H1210       H  0.90790113  0.09692611  0.47858473     0.11400
H1211       H  0.94628541  0.20322258  0.91093029     0.11500
H1212       H  0.87789390  0.18866230  0.42471935     0.13400
H1213       H  0.84281280  0.22901846  0.40350482     0.09900
H1214       H  0.82991547  0.28297514  0.39814598     0.12000
H1215       H  0.92516547  0.30588867  0.91408698     0.08600
H1216       H  0.93840964  0.25240944  0.92091337     0.11400
C1217       C  0.79837894  0.38001255  0.90692583    -0.03200
C1218       C  0.79016425  0.41008045  0.89784841    -0.05800
C1219       C  0.76022724  0.42034776  0.90131807    -0.20900
C1220       C  0.73756279  0.40115662  0.91465687     0.24800
C1221       C  0.74427823  0.37277677  0.41912885    -0.18500
C1222       C  0.77410798  0.36172081  0.41474988    -0.08400
C1223       C  0.70619347  0.41401645  0.91893866    -0.18700
C1224       C  0.68462771  0.40480723  0.44214059    -0.23500
C1225       C  0.65440088  0.41953189  0.44959303     0.26900
C1226       C  0.63685719  0.40877938  0.47933571    -0.20300
C1227       C  0.60829545  0.42147038  0.48718539    -0.09900
C1228       C  0.59627637  0.44313130  0.96406649    -0.10500
C1229       C  0.61320011  0.45266805  0.93307131    -0.03400
C1230       C  0.64176463  0.43981986  0.92532374    -0.18500
H1231       H  0.80695021  0.42584341  0.88797245     0.10600
H1232       H  0.75486876  0.44370081  0.89413222     0.10600
H1233       H  0.72647768  0.35668642  0.42433104     0.10300
H1234       H  0.77849092  0.33754685  0.41735241     0.11400
H1235       H  0.70144266  0.43502271  0.90424049     0.11500
H1236       H  0.68936788  0.38333507  0.45591473     0.13400
H1237       H  0.64529431  0.39040006  0.49667338     0.09900
H1238       H  0.59550613  0.41237630  0.51024171     0.12000
H1239       H  0.60420030  0.46986811  0.91440102     0.08600
H1240       H  0.65344450  0.44751913  0.90071705     0.11400
loop_ 
_geom_bond_atom_site_label_1 
_geom_bond_atom_site_label_2 
_geom_bond_distance 
_geom_bond_site_symmetry_2 
_ccdc_geom_bond_type 
C1            N2   1.362       .  A
C1          N626   1.359       .  A
C1         C1217   1.494       .  S
N2            C3   1.366       .  A
C3          N624   1.367       .  A
C3         C1204   1.497       .  S
N4            C5   1.364       .  A
N4          C623   1.368       .  A
C5            N6   1.357       .  A
C5          C549   1.496       .  S
N6          C621   1.357       .  A
C7            N8   1.363       .  A
C7           N12   1.365       .  A
C7          C525   1.498       .  S
N8            C9   1.361       .  A
C9           N10   1.361       .  A
C9          C477   1.496       .  S
N10          C11   1.363       .  A
C11          N12   1.365       .  A
C11         C512   1.498       .  S
C13          N14   1.366       .  A
C13          N18   1.368       .  A
C13         C429   1.501       .  S
N14          C15   1.364       .  A
C15          N16   1.360       .  A
C15         C416   1.498       .  S
N16          C17   1.360       .  A
C17          N18   1.364       .  A
C17         C453   1.496       .  S
C19          N20   1.361       .  A
C19          N24   1.365       .  A
C19         C357   1.500       .  S
N20          C21   1.362       .  A
C21          N22   1.365       .  A
C21         C333   1.500       .  S
N22          C23   1.367       .  A
C23          N24   1.366       .  A
C23         C392   1.504       .  S
O25          C41   1.280       .  A
O25         Zn31   2.051       .  S
C26          C69   1.471       .  S
C26          O42   1.278       .  A
C26          O39   1.277   1_655  A
O27          C40   1.280       .  A
O27        Cd654   2.099       .  S
O28          C46   1.279       .  A
O28         Cd37   2.098       .  S
O29         C663   1.283       .  A
O29         Cd33   2.128   1_556  S
O30          C41   1.281       .  A
O30        Cd653   2.109   1_565  S
Zn31         O42   2.044       .  S
Zn31         O44   2.049       .  S
Zn31         O36   1.948       .  S
O32          C43   1.277       .  A
O32         Cd37   2.074   1_655  S
Cd33         O35   2.105       .  S
Cd33        O650   2.106   1_545  S
Cd33        O656   2.011   1_544  S
Cd34         O38   2.080       .  S
Cd34        O647   2.098   1_554  S
Cd34        O667   2.101       .  S
Cd34        O656   1.998   1_454  S
O35          C45   1.281   1_545  A
O36         Cd37   1.990   1_665  S
O36        Cd653   2.012   1_565  S
O36        Cd654   1.998   1_655  S
Cd37         O39   2.079   1_545  S
O38          C45   1.278   1_455  A
C40         C320   1.498       .  S
C40          O44   1.279   1_455  A
C41         C464   1.501       .  S
C43         C573   1.501       .  S
C43         O649   1.284       .  A
C45          C64   1.473       .  S
C46         C285   1.500       .  S
C46          O47   1.279   1_545  A
O47        Cd654   2.101       .  S
O48          C64   1.280   1_545  A
O48         Zn54   2.053       .  S
C49         C501   1.498       .  S
C49          O65   1.282       .  A
C49          O62   1.278       .  A
O50          C63   1.277   1_565  A
O50         Cd57   2.087       .  S
O51          C69   1.280       .  A
O51         Cd60   2.100       .  S
O52          C66   1.280       .  A
O52         Cd56   2.103       .  S
O53          C64   1.279       .  A
O53         Cd56   2.084       .  S
Zn54         O65   2.075       .  S
Zn54         O67   2.083   1_655  S
Zn54         O59   1.967   1_545  S
O55          C66   1.281       .  A
O55         Cd60   2.117       .  S
Cd56         O58   2.110       .  S
Cd56         O59   2.003       .  S
Cd57         O61   2.083       .  S
Cd57         O70   2.074       .  S
Cd57         O59   1.997   1_455  S
O58          C68   1.281   1_655  A
O59         Cd60   2.007       .  S
Cd60         O62   2.082   1_565  S
O61          C68   1.277       .  A
C63         C237   1.504       .  S
C63          O67   1.281       .  A
C66         C381   1.505       .  S
C68         C261   1.497       .  S
C69          O70   1.276   1_655  A
C71          N72   1.365       .  A
C71          N76   1.365       .  A
C71         C309   1.498       .  S
N72          C73   1.363       .  A
C73          N74   1.359       .  A
C73         C224   1.493       .  S
N74          C75   1.360       .  A
C75          N76   1.363       .  A
C75         C560   1.495       .  S
C77          N78   1.367       .  A
C77          N82   1.362       .  A
C77         C189   1.501       .  S
N78          C79   1.368       .  A
C79          N80   1.364       .  A
C79         C272   1.499       .  S
N80          C81   1.360       .  A
C81          N82   1.360       .  A
C81         C488   1.497       .  S
C83          N84   1.359       .  A
C83          N88   1.364       .  A
C83         C296   1.497       .  S
N84          C85   1.360       .  A
C85          N86   1.364       .  A
C85         C405   1.498       .  S
N86          C87   1.367       .  A
C87          N88   1.367       .  A
C87         C176   1.501       .  S
C89          N90   1.370       .  A
C89          N94   1.369       .  A
C89         C248   1.504       .  S
N90          C91   1.365       .  A
C91          N92   1.358       .  A
C91         C141   1.502       .  S
N92          C93   1.359       .  A
C93          N94   1.365       .  A
C93         C344   1.500       .  S
O95         C111   1.280       .  A
O95        Zn101   2.052       .  S
C96         C165   1.500       .  S
C96         O112   1.281       .  A
C96         O729   1.278       .  A
O97         C110   1.279       .  A
O97        Cd724   2.096       .  S
O98         C116   1.279       .  A
O98        Cd107   2.090       .  S
O99         C113   1.279       .  A
O99        Cd103   2.098       .  S
O100        C111   1.278       .  A
O100       Cd103   2.081       .  S
Zn101       O112   2.075       .  S
Zn101       O114   2.049       .  S
Zn101       O106   1.958       .  S
O102        C733   1.279       .  A
O102       Cd107   2.095   1_556  S
Cd103       O105   2.108       .  S
Cd103       O106   2.003       .  S
Cd104       O108   2.096       .  S
Cd104       O117   2.092       .  S
Cd104       O717   2.093   1_554  S
Cd104       O726   2.002   1_554  S
O105        C115   1.280       .  A
O106       Cd724   2.004       .  S
O106       Cd727   1.994       .  S
Cd107       O109   2.083       .  S
Cd107       O726   1.992   1_554  S
O108        C735   1.279   1_554  A
O109        C716   1.278   1_554  A
C110        C213   1.496       .  S
C110        O114   1.279       .  A
C111        C138   1.473       .  S
C113        C608   1.497       .  S
C113        O722   1.279       .  A
C115        C440   1.501       .  S
C115        O728   1.279       .  A
C116        C119   1.474       .  S
C116        O117   1.278       .  A
O118        C134   1.282       .  A
O118       Zn124   2.075       .  S
C119        O135   1.280       .  A
C119        O132   1.278       .  A
O120        C133   1.281       .  A
O120       Cd127   2.113       .  S
O121        C139   1.280       .  A
O121       Cd130   2.096       .  S
O122        C136   1.280       .  A
O122       Cd126   2.103       .  S
O123        C134   1.278       .  A
O123       Cd126   2.089       .  S
Zn124       O135   2.056       .  S
Zn124       O137   2.049       .  S
Zn124       O129   1.957       .  S
O125        C136   1.279       .  A
O125       Cd130   2.104       .  S
Cd126       O128   2.085       .  S
Cd126       O129   2.001       .  S
Cd127       O131   2.096       .  S
Cd127       O140   2.106       .  S
Cd127       O129   2.015       .  S
O128        C138   1.279       .  A
O129       Cd130   2.002       .  S
Cd130       O132   2.081       .  S
O131        C138   1.279       .  A
C133        C152   1.502       .  S
C133        O137   1.279       .  A
C134        C200   1.501       .  S
C136        C368   1.502       .  S
C139        C536   1.499       .  S
C139        O140   1.280       .  A
C141        C142   1.409       .  A
C141        C146   1.410       .  A
C142        C143   1.400       .  A
C142        H155   1.083       .  S
C143        C144   1.404       .  A
C143        H156   1.083       .  S
C144        C145   1.413       .  A
C144        C147   1.505       .  S
C145        C146   1.413       .  A
C145        H157   1.081       .  S
C146        H158   1.083       .  S
C147        C148   1.353       .  D
C147        H159   1.086       .  S
C148        C149   1.505       .  S
C148        H160   1.085       .  S
C149        C150   1.405       .  A
C149        C154   1.411       .  A
C150        C151   1.404       .  A
C150        H161   1.083       .  S
C151        C152   1.409       .  A
C151        H162   1.083       .  S
C152        C153   1.410       .  A
C153        C154   1.409       .  A
C153        H163   1.083       .  S
C154        H164   1.082       .  S
C165        C166   1.408       .  A
C165        C170   1.409       .  A
C166        C167   1.401       .  A
C166        H179   1.083       .  S
C167        C168   1.405       .  A
C167        H180   1.083       .  S
C168        C169   1.412       .  A
C168        C171   1.503       .  S
C169        C170   1.410       .  A
C169        H181   1.081       .  S
C170        H182   1.083       .  S
C171        C172   1.354       .  D
C171        H183   1.084       .  S
C172        C173   1.506       .  S
C172        H184   1.085       .  S
C173        C174   1.407       .  A
C173        C178   1.411       .  A
C174        C175   1.404       .  A
C174        H185   1.083       .  S
C175        C176   1.408       .  A
C175        H186   1.083       .  S
C176        C177   1.409       .  A
C177        C178   1.407       .  A
C177        H187   1.083       .  S
C178        H188   1.080       .  S
C189        C190   1.409       .  A
C189        C194   1.410       .  A
C190        C191   1.401       .  A
C190        H203   1.083       .  S
C191        C192   1.405       .  A
C191        H204   1.083       .  S
C192        C193   1.412       .  A
C192        C195   1.504       .  S
C193        C194   1.411       .  A
C193        H205   1.081       .  S
C194        H206   1.083       .  S
C195        C196   1.353       .  D
C195        H207   1.086       .  S
C196        C197   1.504       .  S
C196        H208   1.085       .  S
C197        C198   1.405       .  A
C197        C202   1.411       .  A
C198        C199   1.404       .  A
C198        H209   1.083       .  S
C199        C200   1.409       .  A
C199        H210   1.083       .  S
C200        C201   1.409       .  A
C201        C202   1.409       .  A
C201        H211   1.083       .  S
C202        H212   1.082       .  S
C213        C214   1.407       .  A
C213        C218   1.409       .  A
C214        C215   1.402       .  A
C214        H227   1.083       .  S
C215        C216   1.406       .  A
C215        H228   1.083       .  S
C216        C217   1.411       .  A
C216        C219   1.502       .  S
C217        C218   1.406       .  A
C217        H229   1.080       .  S
C218        H230   1.083       .  S
C219        C220   1.355       .  D
C219        H231   1.083       .  S
C220        C221   1.504       .  S
C220        H232   1.084       .  S
C221        C222   1.408       .  A
C221        C226   1.411       .  A
C222        C223   1.403       .  A
C222        H233   1.083       .  S
C223        C224   1.405       .  A
C223        H234   1.083       .  S
C224        C225   1.408       .  A
C225        C226   1.403       .  A
C225        H235   1.083       .  S
C226        H236   1.079       .  S
C237        C238   1.408       .  A
C237        C242   1.411       .  A
C238        C239   1.403       .  A
C238        H251   1.083   1_545  S
C239        C240   1.407       .  A
C239        H252   1.083       .  S
C240        C241   1.413       .  A
C240        C243   1.509       .  S
C241        C242   1.413       .  A
C241        H253   1.081       .  S
C242        H254   1.083       .  S
C243        C244   1.356       .  D
C243        H255   1.085       .  S
C244        C245   1.508       .  S
C244        H256   1.084       .  S
C245        C246   1.407       .  A
C245        C250   1.411       .  A
C246        C247   1.406       .  A
C246        H257   1.083       .  S
C247        C248   1.408       .  A
C247        H258   1.083       .  S
C248        C249   1.410       .  A
C249        C250   1.409       .  A
C249        H259   1.083       .  S
C250        H260   1.081       .  S
C261        C262   1.408       .  A
C261        C266   1.408       .  A
C262        C263   1.402       .  A
C262        H275   1.083       .  S
C263        C264   1.405       .  A
C263        H276   1.083       .  S
C264        C265   1.412       .  A
C264        C267   1.502       .  S
C265        C266   1.408       .  A
C265        H277   1.081       .  S
C266        H278   1.083   1_455  S
C267        C268   1.353       .  D
C267        H279   1.084       .  S
C268        C269   1.504       .  S
C268        H280   1.085       .  S
C269        C270   1.405       .  A
C269        C274   1.412       .  A
C270        C271   1.401       .  A
C270        H281   1.083       .  S
C271        C272   1.408       .  A
C271        H282   1.083       .  S
C272        C273   1.409       .  A
C273        C274   1.409       .  A
C273        H283   1.083       .  S
C274        H284   1.080       .  S
C285        C286   1.407       .  A
C285        C290   1.409       .  A
C286        C287   1.404       .  A
C286        H299   1.083       .  S
C287        C288   1.407       .  A
C287        H300   1.083       .  S
C288        C289   1.412       .  A
C288        C291   1.506       .  S
C289        C290   1.407       .  A
C289        H301   1.080       .  S
C290        H302   1.083   1_545  S
C291        C292   1.354       .  D
C291        H303   1.085       .  S
C292        C293   1.503       .  S
C292        H304   1.084       .  S
C293        C294   1.405       .  A
C293        C298   1.412       .  A
C294        C295   1.400       .  A
C294        H305   1.083       .  S
C295        C296   1.407       .  A
C295        H306   1.083       .  S
C296        C297   1.409       .  A
C297        C298   1.410       .  A
C297        H307   1.083       .  S
C298        H308   1.081       .  S
C309        C310   1.407       .  A
C309        C314   1.410       .  A
C310        C311   1.403       .  A
C310        H323   1.083       .  S
C311        C312   1.406       .  A
C311        H324   1.083       .  S
C312        C313   1.410       .  A
C312        C315   1.502       .  S
C313        C314   1.406       .  A
C313        H325   1.081       .  S
C314        H326   1.083       .  S
C315        C316   1.354       .  D
C315        H327   1.084       .  S
C316        C317   1.503       .  S
C316        H328   1.085       .  S
C317        C318   1.407       .  A
C317        C322   1.410       .  A
C318        C319   1.404       .  A
C318        H329   1.083       .  S
C319        C320   1.407       .  A
C319        H330   1.083       .  S
C320        C321   1.410       .  A
C321        C322   1.406       .  A
C321        H331   1.083   1_455  S
C322        H332   1.081       .  S
C333        C334   1.408       .  A
C333        C338   1.408       .  A
C334        C335   1.403       .  A
C334        H347   1.083       .  S
C335        C336   1.406       .  A
C335        H348   1.083       .  S
C336        C337   1.413       .  A
C336        C339   1.507       .  S
C337        C338   1.408       .  A
C337        H349   1.080       .  S
C338        H350   1.083       .  S
C339        C340   1.354   1_565  D
C339        H351   1.083       .  S
C340        C341   1.507       .  S
C340        H352   1.083       .  S
C341        C342   1.405       .  A
C341        C346   1.414       .  A
C342        C343   1.399       .  A
C342        H353   1.083       .  S
C343        C344   1.408       .  A
C343        H354   1.083       .  S
C344        C345   1.409       .  A
C345        C346   1.411       .  A
C345        H355   1.083       .  S
C346        H356   1.080   1_545  S
C357        C358   1.407       .  A
C357        C362   1.410       .  A
C358        C359   1.406       .  A
C358        H371   1.083       .  S
C359        C360   1.408       .  A
C359        H372   1.083       .  S
C360        C361   1.409       .  A
C360        C363   1.505       .  S
C361        C362   1.406       .  A
C361        H373   1.081       .  S
C362        H374   1.083       .  S
C363        C364   1.356       .  D
C363        H375   1.084       .  S
C364        C365   1.506       .  S
C364        H376   1.085       .  S
C365        C366   1.408       .  A
C365        C370   1.411       .  A
C366        C367   1.404       .  A
C366        H377   1.083       .  S
C367        C368   1.408       .  A
C367        H378   1.083       .  S
C368        C369   1.410       .  A
C369        C370   1.408       .  A
C369        H379   1.083       .  S
C370        H380   1.081       .  S
C381        C382   1.410       .  A
C381        C386   1.411       .  A
C382        C383   1.406       .  A
C382        H395   1.083       .  S
C383        C384   1.406       .  A
C383        H396   1.083       .  S
C384        C385   1.411       .  A
C384        C387   1.507       .  S
C385        C386   1.411       .  A
C385        H397   1.082       .  S
C386        H398   1.083       .  S
C387        C388   1.356       .  D
C387        H399   1.085       .  S
C388        C389   1.508       .  S
C388        H400   1.085       .  S
C389        C390   1.407       .  A
C389        C394   1.411       .  A
C390        C391   1.405       .  A
C390        H401   1.083       .  S
C391        C392   1.408       .  A
C391        H402   1.083       .  S
C392        C393   1.411       .  A
C393        C394   1.410       .  A
C393        H403   1.083       .  S
C394        H404   1.081       .  S
C405        C406   1.408       .  A
C405        C410   1.408       .  A
C406        C407   1.400       .  A
C406        H419   1.083       .  S
C407        C408   1.405       .  A
C407        H420   1.083   1_545  S
C408        C409   1.413       .  A
C408        C411   1.504   1_545  S
C409        C410   1.409       .  A
C409        H421   1.080       .  S
C410        H422   1.083       .  S
C411        C412   1.353       .  D
C411        H423   1.083       .  S
C412        C413   1.505       .  S
C412        H424   1.084   1_565  S
C413        C414   1.405       .  A
C413        C418   1.413       .  A
C414        C415   1.401       .  A
C414        H425   1.083       .  S
C415        C416   1.408       .  A
C415        H426   1.083       .  S
C416        C417   1.408       .  A
C417        C418   1.408       .  A
C417        H427   1.083       .  S
C418        H428   1.079       .  S
C429        C430   1.407       .  A
C429        C434   1.410       .  A
C430        C431   1.405       .  A
C430        H443   1.083       .  S
C431        C432   1.408       .  A
C431        H444   1.083       .  S
C432        C433   1.412       .  A
C432        C435   1.508       .  S
C433        C434   1.407       .  A
C433        H445   1.080       .  S
C434        H446   1.083       .  S
C435        C436   1.356       .  D
C435        H447   1.084       .  S
C436        C437   1.506       .  S
C436        H448   1.083       .  S
C437        C438   1.406       .  A
C437        C442   1.411       .  A
C438        C439   1.403       .  A
C438        H449   1.083       .  S
C439        C440   1.408       .  A
C439        H450   1.083       .  S
C440        C441   1.410       .  A
C441        C442   1.409       .  A
C441        H451   1.083       .  S
C442        H452   1.081       .  S
C453        C454   1.407       .  A
C453        C458   1.409       .  A
C454        C455   1.401       .  A
C454        H467   1.083       .  S
C455        C456   1.405       .  A
C455        H468   1.083       .  S
C456        C457   1.412       .  A
C456        C459   1.503       .  S
C457        C458   1.410       .  A
C457        H469   1.081       .  S
C458        H470   1.083       .  S
C459        C460   1.355       .  D
C459        H471   1.083       .  S
C460        C461   1.508       .  S
C460        H472   1.085       .  S
C461        C462   1.408       .  A
C461        C466   1.413       .  A
C462        C463   1.405       .  A
C462        H473   1.083       .  S
C463        C464   1.408       .  A
C463        H474   1.083       .  S
C464        C465   1.409       .  A
C465        C466   1.407       .  A
C465        H475   1.083       .  S
C466        H476   1.079       .  S
C477        C478   1.407       .  A
C477        C482   1.407       .  A
C478        C479   1.404       .  A
C478        H491   1.083       .  S
C479        C480   1.407       .  A
C479        H492   1.083       .  S
C480        C481   1.412       .  A
C480        C483   1.506       .  S
C481        C482   1.404       .  A
C481        H493   1.079       .  S
C482        H494   1.083       .  S
C483        C484   1.355       .  D
C483        H495   1.083       .  S
C484        C485   1.502   1_655  S
C484        H496   1.082   1_655  S
C485        C486   1.406       .  A
C485        C490   1.411       .  A
C486        C487   1.400       .  A
C486        H497   1.083       .  S
C487        C488   1.406       .  A
C487        H498   1.083       .  S
C488        C489   1.410       .  A
C489        C490   1.408       .  A
C489        H499   1.083       .  S
C490        H500   1.080   1_455  S
C501        C502   1.409       .  A
C501        C506   1.409       .  A
C502        C503   1.401       .  A
C502        H515   1.083       .  S
C503        C504   1.404       .  A
C503        H516   1.083       .  S
C504        C505   1.411       .  A
C504        C507   1.500       .  S
C505        C506   1.409       .  A
C505        H517   1.082       .  S
C506        H518   1.083       .  S
C507        C508   1.352       .  D
C507        H519   1.085       .  S
C508        C509   1.502       .  S
C508        H520   1.086       .  S
C509        C510   1.405       .  A
C509        C514   1.411       .  A
C510        C511   1.403       .  A
C510        H521   1.083       .  S
C511        C512   1.408       .  A
C511        H522   1.083       .  S
C512        C513   1.408       .  A
C513        C514   1.406       .  A
C513        H523   1.083       .  S
C514        H524   1.081       .  S
C525        C526   1.408       .  A
C525        C530   1.409       .  A
C526        C527   1.406       .  A
C526        H539   1.083       .  S
C527        C528   1.407       .  A
C527        H540   1.083       .  S
C528        C529   1.409       .  A
C528        C531   1.503       .  S
C529        C530   1.404       .  A
C529        H541   1.081       .  S
C530        H542   1.083       .  S
C531        C532   1.355       .  D
C531        H543   1.084       .  S
C532        C533   1.504       .  S
C532        H544   1.085       .  S
C533        C534   1.407       .  A
C533        C538   1.411       .  A
C534        C535   1.402       .  A
C534        H545   1.083       .  S
C535        C536   1.407       .  A
C535        H546   1.083       .  S
C536        C537   1.410       .  A
C537        C538   1.409       .  A
C537        H547   1.083       .  S
C538        H548   1.080       .  S
C549        C554   1.408       .  A
C549       C1170   1.408       .  A
C550        C551   1.398       .  A
C550       C1169   1.407       .  A
C550        H563   1.083       .  S
C551       C1172   1.404       .  A
C551        H564   1.083       .  S
C552        C553   1.413       .  A
C552       C1171   1.403       .  A
C552        C555   1.500       .  S
C553        C554   1.409       .  A
C553        H565   1.080       .  S
C554        H566   1.083       .  S
C555        C556   1.351   1_655  D
C555       H1187   1.084       .  S
C556        C557   1.500       .  S
C556        H568   1.084       .  S
C557        C558   1.404       .  A
C557        C562   1.412       .  A
C558        C559   1.400       .  A
C558        H569   1.083       .  S
C559        C560   1.408       .  A
C559        H570   1.083       .  S
C560        C561   1.407       .  A
C561        C562   1.405       .  A
C561       H1191   1.083       .  S
C562       H1192   1.080   1_455  S
H567       C1175   1.083       .  S
H571       C1181   1.083       .  S
H572       C1182   1.080   1_655  S
C573        C574   1.410       .  A
C573       C1198   1.409       .  A
C574        C575   1.401       .  A
C574        H587   1.083       .  S
C575        C576   1.404       .  A
C575        H588   1.083       .  S
C576       C1197   1.413       .  A
C576        C579   1.503       .  S
C577        C578   1.411       .  A
C577       C1196   1.412       .  A
C577        H589   1.081       .  S
C578       C1193   1.409       .  A
C578        H590   1.083       .  S
C579       C1200   1.353       .  D
C579        H591   1.085       .  S
C580        C581   1.504       .  S
C580       C1199   1.353       .  D
C580        H592   1.085       .  S
C581        C582   1.406       .  A
C581       C1206   1.411       .  A
C582        C583   1.404       .  A
C582        H593   1.083       .  S
C583       C1204   1.408       .  A
C583        H594   1.083       .  S
C584        C623   1.500       .  S
C584        C585   1.409       .  A
C584       C1203   1.408       .  A
C585        C586   1.407       .  A
C585        H595   1.083       .  S
C586       C1201   1.411       .  A
C586        H596   1.081       .  S
C597        C621   1.496       .  S
C597        C598   1.408       .  A
C597       C1222   1.409       .  A
C598        C599   1.398       .  A
C598        H611   1.083       .  S
C599        C600   1.403       .  A
C599        H612   1.083       .  S
C600       C1221   1.411       .  A
C600        C603   1.498       .  S
C601        C602   1.409       .  A
C601       C1220   1.411       .  A
C601        H613   1.081       .  S
C602       C1217   1.408       .  A
C602        H614   1.083       .  S
C603       C1224   1.352       .  D
C603        H615   1.084       .  S
C604        C605   1.504       .  S
C604       C1223   1.353       .  D
C604        H616   1.085       .  S
C605        C606   1.407       .  A
C605       C1230   1.411       .  A
C606        C607   1.404       .  A
C606        H617   1.083       .  S
C607       C1228   1.407       .  A
C607        H618   1.083   1_556  S
C608        C609   1.408       .  A
C608       C1227   1.408       .  A
C609        C610   1.405       .  A
C609        H619   1.083       .  S
C610       C1225   1.411       .  A
C610        H620   1.081       .  S
C621        N622   1.363       .  A
N622        C623   1.368       .  A
N624        C625   1.364       .  A
C625        N626   1.359       .  A
C625       C1169   1.496       .  S
C627        N628   1.363       .  A
C627        N632   1.365       .  A
C627       C1145   1.498       .  S
N628        C629   1.362       .  A
C629        N630   1.361       .  A
C629       C1097   1.496       .  S
N630        C631   1.362       .  A
C631        N632   1.365       .  A
C631       C1132   1.496       .  S
C633        N634   1.367       .  A
C633        N638   1.369       .  A
C633       C1049   1.503       .  S
N634        C635   1.364       .  A
C635        N636   1.358       .  A
C635       C1036   1.497       .  S
N636        C637   1.358       .  A
C637        N638   1.365       .  A
C637       C1073   1.497       .  S
C639        N640   1.362       .  A
C639        N644   1.367       .  A
C639        C977   1.502       .  S
N640        C641   1.362       .  A
C641        N642   1.363       .  A
C641        C953   1.500       .  S
N642        C643   1.366       .  A
C643        N644   1.367       .  A
C643       C1012   1.503       .  S
O645        C661   1.280       .  A
O645       Zn651   2.052       .  S
C646        C689   1.472       .  S
C646        O662   1.277       .  A
C646        O659   1.278   1_655  A
O647        C660   1.280       .  A
O648        C666   1.279       .  A
O648       Cd657   2.099       .  S
O649       Cd653   2.133       .  S
O650        C661   1.280   1_554  A
Zn651       O662   2.040       .  S
Zn651       O664   2.053       .  S
Zn651       O656   1.949       .  S
O652        C663   1.277       .  A
O652       Cd657   2.074   1_655  S
Cd653       O655   2.112       .  S
Cd654       O658   2.080   1_455  S
O655        C665   1.282   1_545  A
O656       Cd657   1.991   1_665  S
Cd657       O659   2.083   1_545  S
O658        C665   1.278       .  A
C660        C940   1.499       .  S
C660        O664   1.279   1_455  A
C661       C1084   1.499       .  S
C663       C1193   1.499       .  S
C665        C684   1.476       .  S
C666        C905   1.500       .  S
C666        O667   1.279   1_546  A
O668        C684   1.281   1_545  A
O668       Zn674   2.060       .  S
C669       C1121   1.498       .  S
C669        O685   1.283       .  A
C669        O682   1.278       .  A
O670        C683   1.277   1_565  A
O670       Cd677   2.085       .  S
O671        C689   1.280       .  A
O671       Cd680   2.100       .  S
O672        C686   1.279       .  A
O672       Cd676   2.101       .  S
O673        C684   1.279       .  A
O673       Cd676   2.085       .  S
Zn674       O685   2.076       .  S
Zn674       O687   2.085   1_655  S
Zn674       O679   1.967   1_545  S
O675        C686   1.281       .  A
O675       Cd680   2.118       .  S
Cd676       O678   2.112       .  S
Cd676       O679   2.001       .  S
Cd677       O681   2.083       .  S
Cd677       O690   2.074       .  S
Cd677       O679   1.996   1_455  S
O678        C688   1.281   1_655  A
O679       Cd680   2.007       .  S
Cd680       O682   2.079   1_565  S
O681        C688   1.278       .  A
C683        C857   1.503       .  S
C683        O687   1.281       .  A
C686       C1001   1.505       .  S
C688        C881   1.498       .  S
C689        O690   1.276   1_655  A
C691        N692   1.365       .  A
C691        N696   1.365       .  A
C691        C929   1.498       .  S
N692        C693   1.364       .  A
C693        N694   1.360       .  A
C693        C844   1.495       .  S
N694        C695   1.360       .  A
C695        N696   1.363       .  A
C695       C1180   1.495       .  S
C697        N698   1.367       .  A
C697        N702   1.361       .  A
C697        C809   1.501       .  S
N698        C699   1.369       .  A
C699        N700   1.364       .  A
C699        C892   1.500       .  S
N700        C701   1.360       .  A
C701        N702   1.359       .  A
C701       C1108   1.496       .  S
C703        N704   1.359       .  A
C703        N708   1.363       .  A
C703        C916   1.496       .  S
N704        C705   1.360       .  A
C705        N706   1.364       .  A
C705       C1025   1.498       .  S
N706        C707   1.367       .  A
C707        N708   1.367       .  A
C707        C796   1.500       .  S
C709        N710   1.369       .  A
C709        N714   1.369       .  A
C709        C868   1.502       .  S
N710        C711   1.365       .  A
C711        N712   1.359       .  A
C711        C761   1.500       .  S
N712        C713   1.359       .  A
C713        N714   1.365       .  A
C713        C964   1.499       .  S
O715        C731   1.280       .  A
O715       Zn721   2.052       .  S
C716        C785   1.501   1_556  S
C716        O732   1.282       .  A
O717        C730   1.279       .  A
O718        C736   1.278       .  A
O718       Cd727   2.086       .  S
O719        C733   1.279       .  A
O719       Cd723   2.099       .  S
O720        C731   1.278       .  A
O720       Cd723   2.081       .  S
Zn721       O732   2.078       .  S
Zn721       O734   2.048       .  S
Zn721       O726   1.958       .  S
O722       Cd727   2.092       .  S
Cd723       O725   2.111       .  S
Cd723       O726   2.001       .  S
Cd724       O728   2.097       .  S
Cd724       O737   2.089       .  S
O725        C735   1.281       .  A
Cd727       O729   2.083       .  S
C730        C833   1.495       .  S
C730        O734   1.279       .  A
C731        C758   1.473       .  S
C733       C1228   1.497       .  S
C735       C1060   1.502       .  S
C736        C739   1.472       .  S
C736        O737   1.278       .  A
O738        C754   1.281       .  A
O738       Zn744   2.070       .  S
C739        O755   1.280       .  A
C739        O752   1.278       .  A
O740        C753   1.281       .  A
O740       Cd747   2.109       .  S
O741        C759   1.280       .  A
O741       Cd750   2.100       .  S
O742        C756   1.280       .  A
O742       Cd746   2.104       .  S
O743        C754   1.278       .  A
O743       Cd746   2.091       .  S
Zn744       O755   2.049       .  S
Zn744       O757   2.047       .  S
Zn744       O749   1.957       .  S
O745        C756   1.279       .  A
O745       Cd750   2.105       .  S
Cd746       O748   2.088       .  S
Cd746       O749   1.999       .  S
Cd747       O751   2.093       .  S
Cd747       O760   2.106       .  S
Cd747       O749   2.013       .  S
O748        C758   1.279       .  A
O749       Cd750   2.001       .  S
Cd750       O752   2.080       .  S
O751        C758   1.279       .  A
C753        C772   1.499       .  S
C753        O757   1.278       .  A
C754        C820   1.500       .  S
C756        C988   1.503       .  S
C759       C1156   1.500       .  S
C759        O760   1.280       .  A
C761        C762   1.408       .  A
C761        C766   1.410       .  A
C762        C763   1.400       .  A
C762        H775   1.083       .  S
C763        C764   1.404       .  A
C763        H776   1.083       .  S
C764        C765   1.413       .  A
C764        C767   1.504       .  S
C765        C766   1.412       .  A
C765        H777   1.081       .  S
C766        H778   1.083       .  S
C767        C768   1.353       .  D
C767        H779   1.086       .  S
C768        C769   1.504       .  S
C768        H780   1.085       .  S
C769        C770   1.406       .  A
C769        C774   1.411       .  A
C770        C771   1.405       .  A
C770        H781   1.083       .  S
C771        C772   1.409       .  A
C771        H782   1.083       .  S
C772        C773   1.408       .  A
C773        C774   1.408       .  A
C773        H783   1.083       .  S
C774        H784   1.082       .  S
C785        C786   1.409       .  A
C785        C790   1.410   1_554  A
C786        C787   1.401       .  A
C786        H799   1.083       .  S
C787        C788   1.404       .  A
C787        H800   1.083       .  S
C788        C789   1.412   1_554  A
C788        C791   1.503       .  S
C789        C790   1.411       .  A
C789        H801   1.082       .  S
C790        H802   1.083       .  S
C791        C792   1.353       .  D
C791        H803   1.085       .  S
C792        C793   1.504       .  S
C792        H804   1.085       .  S
C793        C794   1.406       .  A
C793        C798   1.411       .  A
C794        C795   1.404       .  A
C794        H805   1.083       .  S
C795        C796   1.408       .  A
C795        H806   1.083       .  S
C796        C797   1.409       .  A
C797        C798   1.407       .  A
C797        H807   1.083       .  S
C798        H808   1.081       .  S
C809        C810   1.409       .  A
C809        C814   1.410       .  A
C810        C811   1.400       .  A
C810        H823   1.083       .  S
C811        C812   1.404       .  A
C811        H824   1.083       .  S
C812        C813   1.412       .  A
C812        C815   1.504       .  S
C813        C814   1.411       .  A
C813        H825   1.081       .  S
C814        H826   1.083       .  S
C815        C816   1.353       .  D
C815        H827   1.085       .  S
C816        C817   1.504       .  S
C816        H828   1.085       .  S
C817        C818   1.405       .  A
C817        C822   1.411       .  A
C818        C819   1.404       .  A
C818        H829   1.083       .  S
C819        C820   1.409       .  A
C819        H830   1.083       .  S
C820        C821   1.409       .  A
C821        C822   1.409       .  A
C821        H831   1.083       .  S
C822        H832   1.082       .  S
C833        C834   1.407       .  A
C833        C838   1.408       .  A
C834        C835   1.402       .  A
C834        H847   1.083       .  S
C835        C836   1.407       .  A
C835        H848   1.083       .  S
C836        C837   1.411       .  A
C836        C839   1.502       .  S
C837        C838   1.405       .  A
C837        H849   1.080       .  S
C838        H850   1.083       .  S
C839        C840   1.355       .  D
C839        H851   1.083       .  S
C840        C841   1.503       .  S
C840        H852   1.084       .  S
C841        C842   1.408       .  A
C841        C846   1.410       .  A
C842        C843   1.404       .  A
C842        H853   1.083       .  S
C843        C844   1.406       .  A
C843        H854   1.083       .  S
C844        C845   1.408       .  A
C845        C846   1.403       .  A
C845        H855   1.083       .  S
C846        H856   1.079       .  S
C857        C858   1.408       .  A
C857        C862   1.410       .  A
C858        C859   1.403       .  A
C858        H871   1.083       .  S
C859        C860   1.407       .  A
C859        H872   1.083       .  S
C860        C861   1.413       .  A
C860        C863   1.508       .  S
C861        C862   1.412       .  A
C861        H873   1.081       .  S
C862        H874   1.083       .  S
C863        C864   1.356       .  D
C863        H875   1.085       .  S
C864        C865   1.507       .  S
C864        H876   1.084       .  S
C865        C866   1.407       .  A
C865        C870   1.411       .  A
C866        C867   1.406       .  A
C866        H877   1.083       .  S
C867        C868   1.408       .  A
C867        H878   1.083       .  S
C868        C869   1.410       .  A
C869        C870   1.409       .  A
C869        H879   1.083       .  S
C870        H880   1.082       .  S
C881        C882   1.408       .  A
C881        C886   1.409       .  A
C882        C883   1.401       .  A
C882        H895   1.083       .  S
C883        C884   1.405       .  A
C883        H896   1.083       .  S
C884        C885   1.412       .  A
C884        C887   1.502       .  S
C885        C886   1.409       .  A
C885        H897   1.081       .  S
C886        H898   1.083   1_455  S
C887        C888   1.353       .  D
C887        H899   1.084       .  S
C888        C889   1.504       .  S
C888        H900   1.085       .  S
C889        C890   1.405       .  A
C889        C894   1.412       .  A
C890        C891   1.402       .  A
C890        H901   1.083       .  S
C891        C892   1.409       .  A
C891        H902   1.083       .  S
C892        C893   1.409       .  A
C893        C894   1.409       .  A
C893        H903   1.083       .  S
C894        H904   1.081       .  S
C905        C906   1.407       .  A
C905        C910   1.409   1_556  A
C906        C907   1.404       .  A
C906        H919   1.083       .  S
C907        C908   1.407   1_556  A
C907        H920   1.083       .  S
C908        C909   1.412       .  A
C908        C911   1.507       .  S
C909        C910   1.407       .  A
C909        H921   1.080       .  S
C910        H922   1.083   1_545  S
C911        C912   1.355       .  D
C911        H923   1.084       .  S
C912        C913   1.503       .  S
C912        H924   1.083       .  S
C913        C914   1.405       .  A
C913        C918   1.412       .  A
C914        C915   1.401       .  A
C914        H925   1.083       .  S
C915        C916   1.407       .  A
C915        H926   1.083       .  S
C916        C917   1.408       .  A
C917        C918   1.409       .  A
C917        H927   1.083       .  S
C918        H928   1.081       .  S
C929        C930   1.407       .  A
C929        C934   1.409       .  A
C930        C931   1.403       .  A
C930        H943   1.083       .  S
C931        C932   1.406       .  A
C931        H944   1.083       .  S
C932        C933   1.411       .  A
C932        C935   1.503       .  S
C933        C934   1.407       .  A
C933        H945   1.081       .  S
C934        H946   1.083       .  S
C935        C936   1.355       .  D
C935        H947   1.084       .  S
C936        C937   1.505       .  S
C936        H948   1.084       .  S
C937        C938   1.407       .  A
C937        C942   1.411       .  A
C938        C939   1.404       .  A
C938        H949   1.083       .  S
C939        C940   1.407       .  A
C939        H950   1.083       .  S
C940        C941   1.410       .  A
C941        C942   1.407       .  A
C941        H951   1.083   1_455  S
C942        H952   1.080       .  S
C953        C954   1.407       .  A
C953        C958   1.409       .  A
C954        C955   1.403       .  A
C954        H967   1.083       .  S
C955        C956   1.406       .  A
C955        H968   1.083       .  S
C956        C957   1.413       .  A
C956        C959   1.507       .  S
C957        C958   1.408       .  A
C957        H969   1.080       .  S
C958        H970   1.083       .  S
C959        C960   1.355   1_565  D
C959        H971   1.083       .  S
C960        C961   1.507       .  S
C960        H972   1.083       .  S
C961        C962   1.405       .  A
C961        C966   1.414       .  A
C962        C963   1.400       .  A
C962        H973   1.083       .  S
C963        C964   1.408       .  A
C963        H974   1.083       .  S
C964        C965   1.408       .  A
C965        C966   1.410       .  A
C965        H975   1.083       .  S
C966        H976   1.080   1_545  S
C977        C978   1.407       .  A
C977        C982   1.411       .  A
C978        C979   1.407       .  A
C978        H991   1.083       .  S
C979        C980   1.408       .  A
C979        H992   1.083       .  S
C980        C981   1.409       .  A
C980        C983   1.506       .  S
C981        C982   1.406       .  A
C981        H993   1.081       .  S
C982        H994   1.083       .  S
C983        C984   1.356       .  D
C983        H995   1.085       .  S
C984        C985   1.506       .  S
C984        H996   1.085       .  S
C985        C986   1.407       .  A
C985        C990   1.411       .  A
C986        C987   1.405       .  A
C986        H997   1.083       .  S
C987        C988   1.408       .  A
C987        H998   1.083       .  S
C988        C989   1.411       .  A
C989        C990   1.409       .  A
C989        H999   1.083       .  S
C990       H1000   1.081       .  S
C1001      C1002   1.409       .  A
C1001      C1006   1.410       .  A
C1002      C1003   1.405       .  A
C1002      H1015   1.083       .  S
C1003      C1004   1.406       .  A
C1003      H1016   1.083       .  S
C1004      C1005   1.412       .  A
C1004      C1007   1.509       .  S
C1005      C1006   1.411       .  A
C1005      H1017   1.081       .  S
C1006      H1018   1.083       .  S
C1007      C1008   1.356       .  D
C1007      H1019   1.085       .  S
C1008      C1009   1.509       .  S
C1008      H1020   1.085       .  S
C1009      C1010   1.407       .  A
C1009      C1014   1.412       .  A
C1010      C1011   1.403       .  A
C1010      H1021   1.083       .  S
C1011      C1012   1.408       .  A
C1011      H1022   1.083       .  S
C1012      C1013   1.411       .  A
C1013      C1014   1.411       .  A
C1013      H1023   1.083       .  S
C1014      H1024   1.081       .  S
C1025      C1026   1.408       .  A
C1025      C1030   1.409       .  A
C1026      C1027   1.399       .  A
C1026      H1039   1.083       .  S
C1027      C1028   1.404       .  A
C1027      H1040   1.083   1_545  S
C1028      C1029   1.413       .  A
C1028      C1031   1.503   1_545  S
C1029      C1030   1.409       .  A
C1029      H1041   1.080       .  S
C1030      H1042   1.083       .  S
C1031      C1032   1.353       .  D
C1031      H1043   1.083       .  S
C1032      C1033   1.505       .  S
C1032      H1044   1.084   1_565  S
C1033      C1034   1.405       .  A
C1033      C1038   1.413       .  A
C1034      C1035   1.400       .  A
C1034      H1045   1.083       .  S
C1035      C1036   1.408       .  A
C1035      H1046   1.083       .  S
C1036      C1037   1.407       .  A
C1037      C1038   1.408       .  A
C1037      H1047   1.083       .  S
C1038      H1048   1.079       .  S
C1049      C1050   1.407       .  A
C1049      C1054   1.410       .  A
C1050      C1051   1.405       .  A
C1050      H1063   1.083       .  S
C1051      C1052   1.408       .  A
C1051      H1064   1.083       .  S
C1052      C1053   1.412       .  A
C1052      C1055   1.509       .  S
C1053      C1054   1.408       .  A
C1053      H1065   1.080       .  S
C1054      H1066   1.083       .  S
C1055      C1056   1.356       .  D
C1055      H1067   1.084       .  S
C1056      C1057   1.507       .  S
C1056      H1068   1.083       .  S
C1057      C1058   1.407       .  A
C1057      C1062   1.412   1_554  A
C1058      C1059   1.404       .  A
C1058      H1069   1.083       .  S
C1059      C1060   1.408   1_554  A
C1059      H1070   1.083       .  S
C1060      C1061   1.409       .  A
C1061      C1062   1.410       .  A
C1061      H1071   1.083       .  S
C1062      H1072   1.081       .  S
C1073      C1074   1.407       .  A
C1073      C1078   1.408       .  A
C1074      C1075   1.400       .  A
C1074      H1087   1.083       .  S
C1075      C1076   1.405       .  A
C1075      H1088   1.083       .  S
C1076      C1077   1.413       .  A
C1076      C1079   1.504       .  S
C1077      C1078   1.411       .  A
C1077      H1089   1.081       .  S
C1078      H1090   1.083       .  S
C1079      C1080   1.355       .  D
C1079      H1091   1.083       .  S
C1080      C1081   1.508       .  S
C1080      H1092   1.085   1_554  S
C1081      C1082   1.408   1_554  A
C1081      C1086   1.413       .  A
C1082      C1083   1.404       .  A
C1082      H1093   1.083       .  S
C1083      C1084   1.407       .  A
C1083      H1094   1.083       .  S
C1084      C1085   1.409   1_556  A
C1085      C1086   1.407       .  A
C1085      H1095   1.083       .  S
C1086      H1096   1.080       .  S
C1097      C1098   1.407       .  A
C1097      C1102   1.408       .  A
C1098      C1099   1.403       .  A
C1098      H1111   1.083       .  S
C1099      C1100   1.407       .  A
C1099      H1112   1.083       .  S
C1100      C1101   1.412       .  A
C1100      C1103   1.504       .  S
C1101      C1102   1.404       .  A
C1101      H1113   1.079       .  S
C1102      H1114   1.083       .  S
C1103      C1104   1.354       .  D
C1103      H1115   1.083       .  S
C1104      C1105   1.503   1_655  S
C1104      H1116   1.082   1_655  S
C1105      C1106   1.406       .  A
C1105      C1110   1.412       .  A
C1106      C1107   1.400       .  A
C1106      H1117   1.083       .  S
C1107      C1108   1.406       .  A
C1107      H1118   1.083       .  S
C1108      C1109   1.409       .  A
C1109      C1110   1.407       .  A
C1109      H1119   1.083       .  S
C1110      H1120   1.079   1_455  S
C1121      C1122   1.409       .  A
C1121      C1126   1.409       .  A
C1122      C1123   1.401       .  A
C1122      H1135   1.083       .  S
C1123      C1124   1.403       .  A
C1123      H1136   1.083       .  S
C1124      C1125   1.411       .  A
C1124      C1127   1.498       .  S
C1125      C1126   1.408       .  A
C1125      H1137   1.082       .  S
C1126      H1138   1.083       .  S
C1127      C1128   1.351       .  D
C1127      H1139   1.085       .  S
C1128      C1129   1.500       .  S
C1128      H1140   1.086       .  S
C1129      C1130   1.405       .  A
C1129      C1134   1.410       .  A
C1130      C1131   1.402       .  A
C1130      H1141   1.083       .  S
C1131      C1132   1.408       .  A
C1131      H1142   1.083       .  S
C1132      C1133   1.408       .  A
C1133      C1134   1.406       .  A
C1133      H1143   1.083       .  S
C1134      H1144   1.081       .  S
C1145      C1146   1.408       .  A
C1145      C1150   1.409       .  A
C1146      C1147   1.406       .  A
C1146      H1159   1.083       .  S
C1147      C1148   1.407       .  A
C1147      H1160   1.083       .  S
C1148      C1149   1.409       .  A
C1148      C1151   1.504       .  S
C1149      C1150   1.404       .  A
C1149      H1161   1.081       .  S
C1150      H1162   1.083       .  S
C1151      C1152   1.355       .  D
C1151      H1163   1.084       .  S
C1152      C1153   1.503       .  S
C1152      H1164   1.085       .  S
C1153      C1154   1.406       .  A
C1153      C1158   1.411       .  A
C1154      C1155   1.402       .  A
C1154      H1165   1.083       .  S
C1155      C1156   1.407       .  A
C1155      H1166   1.083       .  S
C1156      C1157   1.411       .  A
C1157      C1158   1.410       .  A
C1157      H1167   1.083       .  S
C1158      H1168   1.081       .  S
C1169      C1174   1.408       .  A
C1170      C1171   1.397       .  A
C1170      H1183   1.083       .  S
C1171      H1184   1.083       .  S
C1172      C1173   1.413       .  A
C1172      C1175   1.501       .  S
C1173      C1174   1.408       .  A
C1173      H1185   1.080       .  S
C1174      H1186   1.083       .  S
C1175      C1176   1.352   1_655  D
C1176      C1177   1.502       .  S
C1176      H1188   1.083       .  S
C1177      C1178   1.405       .  A
C1177      C1182   1.412       .  A
C1178      C1179   1.401       .  A
C1178      H1189   1.083       .  S
C1179      C1180   1.408       .  A
C1179      H1190   1.083       .  S
C1180      C1181   1.407       .  A
C1181      C1182   1.405       .  A
C1193      C1194   1.409       .  A
C1194      C1195   1.400       .  A
C1194      H1207   1.083       .  S
C1195      C1196   1.404       .  A
C1195      H1208   1.083       .  S
C1196      C1199   1.502       .  S
C1197      C1198   1.411       .  A
C1197      H1209   1.081       .  S
C1198      H1210   1.083       .  S
C1199      H1211   1.084       .  S
C1200      C1201   1.505       .  S
C1200      H1212   1.085       .  S
C1201      C1202   1.406       .  A
C1202      C1203   1.404       .  A
C1202      H1213   1.083       .  S
C1203      H1214   1.083       .  S
C1204      C1205   1.408       .  A
C1205      C1206   1.406       .  A
C1205      H1215   1.083       .  S
C1206      H1216   1.080       .  S
C1217      C1218   1.407       .  A
C1218      C1219   1.399       .  A
C1218      H1231   1.083       .  S
C1219      C1220   1.404       .  A
C1219      H1232   1.083       .  S
C1220      C1223   1.500       .  S
C1221      C1222   1.409       .  A
C1221      H1233   1.082       .  S
C1222      H1234   1.083       .  S
C1223      H1235   1.083       .  S
C1224      C1225   1.502       .  S
C1224      H1236   1.085       .  S
C1225      C1226   1.406       .  A
C1226      C1227   1.403       .  A
C1226      H1237   1.083       .  S
C1227      H1238   1.083       .  S
C1228      C1229   1.408       .  A
C1229      C1230   1.406       .  A
C1229      H1239   1.083       .  S
C1230      H1240   1.080       .  S
