geometry optimzed in LAMMPS
_audit_creation_date              2020-11-30 
_audit_creation_method            'lammps2cif' 
_symmetry_space_group_name_H-M    'P1' 
_symmetry_Int_Tables_number       1 
_symmetry_cell_setting            triclinic 
loop_ 
_symmetry_equiv_pos_as_xyz 
  x,y,z 
_cell_length_a                    100.60700839361229 
_cell_length_b                    100.60793228766748 
_cell_length_c                    100.65973193488145 
_cell_angle_alpha                 89.97719308357152 
_cell_angle_beta                  90.02217202455 
_cell_angle_gamma                 89.97149561553087 
loop_ 
_atom_site_label 
_atom_site_type_symbol 
_atom_site_fract_x 
_atom_site_fract_y 
_atom_site_fract_z 
_atom_site_charge 
N1          N  0.79771911  0.32031303  0.76946951    -0.27100
N2          N  0.80652067  0.33003285  0.76897722    -0.34950
C3          C  0.81537093  0.32743183  0.75936974     0.01240
C4          C  0.81187344  0.31552012  0.75358265     0.07270
C5          C  0.80065726  0.31125260  0.76017284    -0.05830
H6          H  0.82366865  0.33376228  0.75680687     0.07940
H7          H  0.79510471  0.30220863  0.75846809     0.09140
Cu8        Cu  0.80609144  0.34632110  0.78121577     0.44170
Cu9        Cu  0.78248354  0.31947266  0.78290382     0.41990
Cu10       Cu  0.78082072  0.34629902  0.80654040     0.43880
N11         N  0.80313648  0.36167397  0.79429780    -0.34480
N12         N  0.79388513  0.36166892  0.80357032    -0.28740
C13         C  0.79447092  0.37312057  0.81033661    -0.04840
C14         C  0.80463915  0.38077570  0.80505369     0.07380
C15         C  0.80990004  0.37312763  0.79487109     0.01180
H16         H  0.78790563  0.37555515  0.81846602     0.08830
H17         H  0.81801264  0.37556672  0.78828580     0.07910
N18         N  0.76860393  0.32998939  0.80698069    -0.35930
N19         N  0.76908542  0.32027856  0.79817187    -0.28110
C20         C  0.75980615  0.31120152  0.80112650    -0.03350
C21         C  0.75323903  0.31544867  0.81236093     0.05260
C22         C  0.75902172  0.32736548  0.81585141     0.03350
H23         H  0.75809752  0.30216033  0.79557231     0.08460
H24         H  0.75647257  0.33368464  0.82415918     0.07290
N25         N  0.67211136  0.19470791  0.76946273    -0.27100
N26         N  0.66239234  0.18590557  0.76896730    -0.34950
C27         C  0.66499598  0.17705792  0.75935817     0.01240
C28         C  0.67690842  0.18055806  0.75357351     0.07270
C29         C  0.68117363  0.19177298  0.76016674    -0.05830
H30         H  0.65866708  0.16875992  0.75679283     0.07940
H31         H  0.69021760  0.19732667  0.75846481     0.09140
Cu32       Cu  0.64610199  0.18632975  0.78120476     0.44170
Cu33       Cu  0.67294996  0.20993993  0.78290040     0.41990
Cu34       Cu  0.64612527  0.21159541  0.80653594     0.43880
N35         N  0.63074904  0.18928241  0.79428861    -0.34480
N36         N  0.63075530  0.19853177  0.80356299    -0.28740
C37         C  0.61930394  0.19794567  0.81032996    -0.04840
C38         C  0.61164738  0.18777939  0.80504578     0.07380
C39         C  0.61929448  0.18251980  0.79486152     0.01180
H40         H  0.61687063  0.20450950  0.81846065     0.08830
H41         H  0.61685390  0.17440906  0.78827491     0.07910
N42         N  0.66243347  0.22381400  0.80697967    -0.35930
N43         N  0.67214427  0.22333487  0.79817059    -0.28110
C44         C  0.68122055  0.23261438  0.80112628    -0.03350
C45         C  0.67697293  0.23917937  0.81236171     0.05260
C46         C  0.66505656  0.23339506  0.81585172     0.03350
H47         H  0.69026150  0.23432488  0.79557180     0.08460
H48         H  0.65873705  0.23594254  0.82415988     0.07290
N49         N  0.72656556  0.29451478  0.82402213    -0.27100
N50         N  0.72707099  0.30333061  0.83372372    -0.34950
C51         C  0.73667038  0.31218325  0.83108325     0.01240
C52         C  0.74243431  0.30866890  0.81916572     0.07270
C53         C  0.73583995  0.29744278  0.81493695    -0.05830
H54         H  0.73924208  0.32049578  0.83738847     0.07940
H55         H  0.73752447  0.29187691  0.80590064     0.09140
Cu56       Cu  0.71484487  0.30290301  0.85003139     0.44170
Cu57       Cu  0.71314403  0.27927546  0.82322924     0.41990
Cu58       Cu  0.68951602  0.27757354  0.85003292     0.43880
N59         N  0.70176151  0.29992280  0.86538995    -0.34480
N60         N  0.69249673  0.29065785  0.86539061    -0.28740
C61         C  0.68573628  0.29123420  0.87684376    -0.04840
C62         C  0.69101197  0.30140860  0.88449587     0.07380
C63         C  0.70118579  0.30668395  0.87684260     0.01180
H64         H  0.67761563  0.28465670  0.87928210     0.08830
H65         H  0.70776328  0.31480485  0.87927980     0.07910
N66         N  0.68908915  0.26534748  0.83372513    -0.35930
N67         N  0.69790502  0.26585360  0.82402338    -0.28110
C68         C  0.69497755  0.25657931  0.81493822    -0.03350
C69         C  0.68375180  0.24998417  0.81916702     0.05260
C70         C  0.68023703  0.25574760  0.83108465     0.03350
H71         H  0.70054360  0.25489538  0.80590180     0.08460
H72         H  0.67192446  0.25317526  0.83738992     0.07290
N73         N  0.76895991  0.19484089  0.67245042    -0.27100
N74         N  0.76846200  0.18603651  0.66273962    -0.34950
C75         C  0.75887084  0.17717606  0.66536019     0.01240
C76         C  0.75310553  0.18067421  0.67727632     0.07270
C77         C  0.75968658  0.19189701  0.68152769    -0.05830
H78         H  0.75630558  0.16887257  0.65904038     0.07940
H79         H  0.75799258  0.19745105  0.69056943     0.09140
Cu80       Cu  0.78066348  0.18647745  0.64644423     0.44170
Cu81       Cu  0.78236019  0.21008159  0.67325982     0.41990
Cu82       Cu  0.80596539  0.21178072  0.64644161     0.43880
N83         N  0.79370230  0.18947680  0.63108470    -0.34480
N84         N  0.80296525  0.19874008  0.63108356    -0.28740
C85         C  0.80970739  0.19818519  0.61962414    -0.04840
C86         C  0.80441649  0.18802348  0.61197213     0.07380
C87         C  0.79425595  0.18273328  0.61962616     0.01180
H88         H  0.81782617  0.20476497  0.61718731     0.08830
H89         H  0.78767621  0.17461398  0.61719131     0.07910
N90         N  0.80640417  0.22398217  0.66273727    -0.35930
N91         N  0.79759973  0.22348306  0.67244823    -0.28110
C92         C  0.80054231  0.23275658  0.68152540    -0.03350
C93         C  0.81176420  0.23933912  0.67727401     0.05260
C94         C  0.81526333  0.23357450  0.66535786     0.03350
H95         H  0.79498798  0.23444960  0.69056726     0.08460
H96         H  0.82356680  0.23614092  0.65903808     0.07290
N97         N  0.82347239  0.29462006  0.72686955    -0.27100
N98         N  0.83317755  0.30343747  0.72735311    -0.34950
C99         C  0.83056002  0.31228252  0.73696265     0.01240
C100        C  0.81865398  0.30875927  0.74275450     0.07270
C101        C  0.81440834  0.29753775  0.73616659    -0.05830
H102        H  0.83687362  0.32059331  0.73952409     0.07940
H103        H  0.80537586  0.29196650  0.73787213     0.09140
Cu104      Cu  0.84945972  0.30301040  0.71508769     0.44170
Cu105      Cu  0.82264236  0.27938990  0.71345346     0.41990
Cu106      Cu  0.84938596  0.27772067  0.68975627     0.43880
N107        N  0.86479079  0.30001240  0.70197295    -0.34480
N108        N  0.86475787  0.29075794  0.69270355    -0.28740
C109        C  0.87620067  0.29130943  0.68592173    -0.04840
C110        C  0.88388344  0.30145809  0.69118969     0.07380
C111        C  0.87626039  0.30674556  0.70138030     0.01180
H112        H  0.87861029  0.28473413  0.67779297     0.08830
H113        H  0.87872768  0.31485239  0.70796115     0.07910
N114        N  0.83309617  0.26550780  0.68937186    -0.35930
N115        N  0.82341084  0.26599216  0.69820643    -0.28110
C116        C  0.81432983  0.25671021  0.69528767    -0.03350
C117        C  0.81855351  0.25014008  0.68405053     0.05260
C118        C  0.83045618  0.25591951  0.68051841     0.03350
H119        H  0.80530377  0.25500352  0.70086734     0.08460
H120        H  0.83675400  0.25336683  0.67219525     0.07290
N121        N  0.69781666  0.16896455  0.72686382    -0.27100
N122        N  0.68899973  0.15925887  0.72734448    -0.34950
C123        C  0.68015190  0.16187463  0.73695196     0.01240
C124        C  0.68367260  0.17378017  0.74274573     0.07270
C125        C  0.69489573  0.17802744  0.73616096    -0.05830
H126        H  0.67184105  0.15555993  0.73951091     0.07940
H127        H  0.70046599  0.18705990  0.73786894     0.09140
Cu128      Cu  0.68943102  0.14297796  0.71507860     0.44170
Cu129      Cu  0.71305037  0.16979480  0.71345111     0.41990
Cu130      Cu  0.71472539  0.14304743  0.68975350     0.43880
N131        N  0.69242912  0.12764543  0.70196655    -0.34480
N132        N  0.70168549  0.12767596  0.69269886    -0.28740
C133        C  0.70113340  0.11623211  0.68591885    -0.04840
C134        C  0.69098236  0.10855144  0.69118643     0.07380
C135        C  0.68569428  0.11617686  0.70137468     0.01180
H136        H  0.70771025  0.11382000  0.67779180     0.08830
H137        H  0.67758578  0.11371170  0.70795470     0.07910
N138        N  0.72693751  0.15933908  0.68937199    -0.35930
N139        N  0.72645091  0.16902468  0.69820611    -0.28110
C140        C  0.73573254  0.17810648  0.69528833    -0.03350
C141        C  0.74230487  0.17388333  0.68405229     0.05260
C142        C  0.73652705  0.16198001  0.68051982     0.03350
H143        H  0.73743716  0.18713292  0.70086756     0.08460
H144        H  0.73908143  0.15568262  0.67219701     0.07290
N145        N  0.88034862  0.46583254  0.76950073    -0.27100
N146        N  0.86941847  0.46659118  0.77677467    -0.34950
C147        C  0.86623422  0.47938104  0.77866911     0.01240
C148        C  0.87553782  0.48722961  0.77234976     0.07270
C149        C  0.88438762  0.47832704  0.76659207    -0.05830
H150        H  0.85772538  0.48268681  0.78433838     0.07940
H151        H  0.89309856  0.48073941  0.76078221     0.09140
Cu152      Cu  0.85874632  0.45074482  0.78428131     0.44170
Cu153      Cu  0.88892714  0.44759190  0.76402721     0.41990
Cu154      Cu  0.86908186  0.41869502  0.77408535     0.43880
N155        N  0.84911421  0.43379432  0.79064403    -0.34480
N156        N  0.85289896  0.42186507  0.78672093    -0.28740
C157        C  0.84472670  0.41279788  0.79212676    -0.04840
C158        C  0.83526104  0.41932250  0.79983756     0.07380
C159        C  0.83844201  0.43267227  0.79866916     0.01180
H160        H  0.84566141  0.40221406  0.79051790     0.08830
H161        H  0.83320372  0.44098507  0.80302125     0.07910
N162        N  0.88638866  0.41753125  0.76264394    -0.35930
N163        N  0.89399403  0.42782365  0.75955382    -0.28110
C164        C  0.90475165  0.42336708  0.75286480    -0.03350
C165        C  0.90373481  0.40968373  0.75148530     0.05260
C166        C  0.89194335  0.40637560  0.75774605     0.03350
H167        H  0.91257540  0.42965133  0.74901756     0.08460
H168        H  0.88780743  0.39651677  0.75887067     0.07290
N169        N  0.76942543  0.46603514  0.88076335    -0.27100
N170        N  0.77668328  0.46673683  0.86982053    -0.34950
C171        C  0.77862230  0.47950970  0.86659268     0.01240
C172        C  0.77235316  0.48742078  0.87587508     0.07270
C173        C  0.76657546  0.47856208  0.88476345    -0.05830
H174        H  0.78428709  0.48276233  0.85806297     0.07940
H175        H  0.76078846  0.48102863  0.89347243     0.09140
Cu176      Cu  0.78411246  0.45084100  0.85916667     0.44170
Cu177      Cu  0.76389768  0.44779698  0.88939486     0.41990
Cu178      Cu  0.77386961  0.41883860  0.86956514     0.43880
N179        N  0.79040123  0.43386669  0.84952645    -0.34480
N180        N  0.78645907  0.42195078  0.85333109    -0.28740
C181        C  0.79181609  0.41286330  0.84514753    -0.04840
C182        C  0.79951635  0.41936111  0.83565666     0.07380
C183        C  0.79839071  0.43271615  0.83883286     0.01180
H184        H  0.79018562  0.40228404  0.84609367     0.08830
H185        H  0.80275081  0.44101442  0.83358014     0.07910
N186        N  0.76246067  0.41770727  0.88689920    -0.35930
N187        N  0.75939189  0.42800843  0.89450201    -0.28110
C188        C  0.75271374  0.42354995  0.90526945    -0.03350
C189        C  0.75131741  0.40985921  0.90426102     0.05260
C190        C  0.75756214  0.40655459  0.89246230     0.03350
H191        H  0.74888404  0.42983679  0.91309760     0.08460
H192        H  0.75867424  0.39669566  0.88832414     0.07290
C193        C  0.80659021  0.41320756  0.82420806     0.03320
C194        C  0.80260776  0.40055723  0.81994547    -0.12830
C195        C  0.80897786  0.39415003  0.80938049     0.00820
C196        C  0.81953292  0.40054647  0.80298225    -0.11350
C197        C  0.82381904  0.41319282  0.80694399     0.03320
C198        C  0.81716381  0.41961731  0.81752348    -0.10770
H199        H  0.79434995  0.39576049  0.82479986     0.08910
H200        H  0.82436297  0.39574381  0.79471661     0.06440
H201        H  0.82041199  0.42934693  0.82075247     0.06290
N202        N  0.72631968  0.37720958  0.96963886    -0.27100
N203        N  0.71905508  0.36626799  0.97036463    -0.34950
C204        C  0.71711065  0.36307298  0.98313915     0.01240
C205        C  0.72338412  0.37237741  0.99102143     0.07270
C206        C  0.72916920  0.38124256  0.98214762    -0.05830
H207        H  0.71143964  0.35455264  0.98641218     0.07940
H208        H  0.73495976  0.38995847  0.98459088     0.09140
Cu209      Cu  0.71162360  0.35557691  0.95449744     0.44170
Cu210      Cu  0.73185956  0.38580471  0.95140332     0.41990
Cu211      Cu  0.72189179  0.36592583  0.92249339     0.43880
N212        N  0.70533338  0.34590857  0.93754279    -0.34480
N213        N  0.70928396  0.34969361  0.92562818    -0.28740
C214        C  0.70391810  0.34149875  0.91655680    -0.04840
C215        C  0.69620270  0.33202043  0.92306197     0.07380
C216        C  0.69733033  0.33521768  0.93640618     0.01180
H217        H  0.70555043  0.34243083  0.90598127     0.08830
H218        H  0.69295868  0.32998222  0.94470709     0.07910
N219        N  0.73331260  0.38326690  0.92133961    -0.35930
N220        N  0.73637732  0.39088468  0.93162781    -0.28110
C221        C  0.74305712  0.40165313  0.92716631    -0.03350
C222        C  0.74445959  0.40063286  0.91348536     0.05260
C223        C  0.73821742  0.38882376  0.91018988     0.03350
H224        H  0.74688119  0.40949125  0.93344491     0.08460
H225        H  0.73710905  0.38467626  0.90033827     0.07290
N226        N  0.61520884  0.26610266  0.96963787    -0.27100
N227        N  0.62615031  0.27336750  0.97036451    -0.34950
C228        C  0.62934434  0.27531149  0.98313929     0.01240
C229        C  0.62003946  0.26903751  0.99102092     0.07270
C230        C  0.61117505  0.26325260  0.98214637    -0.05830
H231        H  0.63786446  0.28098255  0.98641298     0.07940
H232        H  0.60245904  0.25746166  0.98458897     0.09140
Cu233      Cu  0.63684286  0.28079991  0.95449829     0.44170
Cu234      Cu  0.60661491  0.26056294  0.95140162     0.41990
Cu235      Cu  0.62649523  0.27053228  0.92249373     0.43880
N236        N  0.64651200  0.28709055  0.93754388    -0.34480
N237        N  0.64272705  0.28314023  0.92562924    -0.28740
C238        C  0.65092213  0.28850597  0.91655788    -0.04840
C239        C  0.66040070  0.29622092  0.92306298     0.07380
C240        C  0.65720324  0.29509331  0.93640725     0.01180
H241        H  0.64999010  0.28687365  0.90598238     0.08830
H242        H  0.66243886  0.29946461  0.94470812     0.07910
N243        N  0.60915493  0.25911060  0.92133805    -0.35930
N244        N  0.60153636  0.25604520  0.93162560    -0.28110
C245        C  0.59076858  0.24936502  0.92716303    -0.03350
C246        C  0.59179017  0.24796299  0.91348208     0.05260
C247        C  0.60359935  0.25420588  0.91018773     0.03350
H248        H  0.58292990  0.24554043  0.93344094     0.08460
H249        H  0.60774770  0.25531487  0.90033648     0.07290
C250        C  0.67185306  0.30331490  0.91692290     0.03320
C251        C  0.67612460  0.29934817  0.90427541    -0.12830
C252        C  0.68668493  0.30573646  0.89787267     0.00820
C253        C  0.69307394  0.31629670  0.90427465    -0.11350
C254        C  0.68910783  0.32056862  0.91692223     0.03320
C255        C  0.67852972  0.31389271  0.92333788    -0.10770
H256        H  0.67127869  0.29108843  0.89947517     0.08910
H257        H  0.70133382  0.32114218  0.89947382     0.06440
H258        H  0.67529430  0.31712847  0.93306587     0.06290
N259        N  0.52658706  0.11207085  0.76949349    -0.27100
N260        N  0.52582646  0.12300043  0.77676796    -0.34950
C261        C  0.51303563  0.12618241  0.77866200     0.01240
C262        C  0.50518835  0.11687799  0.77234191     0.07270
C263        C  0.51409301  0.10803009  0.76658422    -0.05830
H264        H  0.50972825  0.13469027  0.78433138     0.07940
H265        H  0.51168232  0.09931934  0.76077384     0.09140
Cu266      Cu  0.54167183  0.13367536  0.78427592     0.44170
Cu267      Cu  0.54482975  0.10349478  0.76401938     0.41990
Cu268      Cu  0.57372326  0.12334154  0.77407965     0.43880
N269        N  0.55862307  0.14330847  0.79063879    -0.34480
N270        N  0.57055238  0.13952363  0.78671540    -0.28740
C271        C  0.57962004  0.14769553  0.79212070    -0.04840
C272        C  0.57309617  0.15716145  0.79983154     0.07380
C273        C  0.55974592  0.15398075  0.79866377     0.01180
H274        H  0.59020400  0.14676033  0.79051134     0.08830
H275        H  0.55143341  0.15921930  0.80301627     0.07910
N276        N  0.57489068  0.10603635  0.76263698    -0.35930
N277        N  0.56459944  0.09842997  0.75954559    -0.28110
C278        C  0.56905834  0.08767364  0.75285603    -0.03350
C279        C  0.58274200  0.08869251  0.75147757     0.05260
C280        C  0.58604771  0.10048378  0.75773955     0.03350
H281        H  0.56277561  0.07984922  0.74900802     0.08460
H282        H  0.59590604  0.10462097  0.75886556     0.07290
N283        N  0.52638902  0.22299914  0.88075652    -0.27100
N284        N  0.52568793  0.21574152  0.86981369    -0.34950
C285        C  0.51291515  0.21380233  0.86658529     0.01240
C286        C  0.50500341  0.22007112  0.87586738     0.07270
C287        C  0.51386169  0.22584883  0.88475615    -0.05830
H288        H  0.50966305  0.20813761  0.85805554     0.07940
H289        H  0.51139460  0.23163549  0.89346508     0.09140
Cu290      Cu  0.54158465  0.20831273  0.85916089     0.44170
Cu291      Cu  0.54462733  0.22852637  0.88938829     0.41990
Cu292      Cu  0.57358793  0.21855393  0.86955920     0.43880
N293        N  0.55855870  0.20202309  0.84952069    -0.34480
N294        N  0.57047508  0.20596450  0.85332481    -0.28740
C295        C  0.57956194  0.20060656  0.84514091    -0.04840
C296        C  0.57306317  0.19290648  0.83565054     0.07380
C297        C  0.55970826  0.19403331  0.83882736     0.01180
H298        H  0.59014160  0.20223621  0.84608649     0.08830
H299        H  0.55140937  0.18967374  0.83357523     0.07910
N300        N  0.57471793  0.22996266  0.88689391    -0.35930
N301        N  0.56441607  0.23303135  0.89449611    -0.28110
C302        C  0.56887374  0.23970908  0.90526399    -0.03350
C303        C  0.58256468  0.24110536  0.90425670     0.05260
C304        C  0.58587026  0.23486099  0.89245803     0.03350
H305        H  0.56258616  0.24353859  0.91309175     0.08460
H306        H  0.59572975  0.23374898  0.88832057     0.07290
C307        C  0.57921552  0.18583164  0.82420172     0.03320
C308        C  0.59186630  0.18981248  0.81993850    -0.12830
C309        C  0.59827247  0.18344187  0.80937311     0.00820
C310        C  0.59187442  0.17288775  0.80297512    -0.11350
C311        C  0.57922741  0.16860304  0.80693747     0.03320
C312        C  0.57280415  0.17525894  0.81751735    -0.10770
H313        H  0.59666404  0.19806955  0.82479263     0.08910
H314        H  0.59667650  0.16805736  0.79470939     0.06440
H315        H  0.56307406  0.17201192  0.82074680     0.06290
N316        N  0.61537896  0.02336406  0.72641726    -0.27100
N317        N  0.62631495  0.02268149  0.71914612    -0.34950
C318        C  0.62956370  0.00992211  0.71718848     0.01240
C319        C  0.62029846  0.00200346  0.72346117     0.07270
C320        C  0.61139886  0.01083452  0.72926071    -0.05830
H321        H  0.63809301  0.00668798  0.71150850     0.07940
H322        H  0.60269860  0.00834981  0.73505589     0.09140
Cu323      Cu  0.63693206  0.03856137  0.71171989     0.44170
Cu324      Cu  0.60674260  0.04157019  0.73196845     0.41990
Cu325      Cu  0.62657750  0.07052241  0.72200419     0.43880
N326        N  0.64654934  0.05550626  0.70542347    -0.34480
N327        N  0.64275363  0.06742000  0.70937415    -0.28740
C328        C  0.65092408  0.07650493  0.70400492    -0.04840
C329        C  0.66039901  0.06999792  0.69629551     0.07380
C330        C  0.65722886  0.05664727  0.69742061     0.01180
H331        H  0.64998318  0.08708360  0.70564257     0.08830
H332        H  0.66247774  0.04834594  0.69305933     0.07910
N333        N  0.60928553  0.07163768  0.73344150    -0.35930
N334        N  0.60167480  0.06134048  0.73650310    -0.28110
C335        C  0.59092035  0.06579532  0.74320161    -0.03350
C336        C  0.59195284  0.07947775  0.74461496     0.05260
C337        C  0.60374415  0.08278701  0.73836320     0.03350
H338        H  0.58308612  0.05951198  0.74702866     0.08460
H339        H  0.60788832  0.09264433  0.73725562     0.07290
N340        N  0.72625155  0.02340748  0.61532993    -0.27100
N341        N  0.71900593  0.02262124  0.62627495    -0.34950
C342        C  0.71712353  0.00981991  0.62942266     0.01240
C343        C  0.72342183  0.00199568  0.62008096     0.07270
C344        C  0.72915277  0.01092488  0.61124712    -0.05830
H345        H  0.71148323  0.00648878  0.63793818     0.07940
H346        H  0.73494528  0.00853883  0.60251937     0.09140
Cu347      Cu  0.71154242  0.03844891  0.63703436     0.44170
Cu348      Cu  0.73172384  0.04165816  0.60678413     0.41990
Cu349      Cu  0.72182071  0.07047589  0.62675877     0.43880
N350        N  0.70528438  0.05541940  0.64673063    -0.34480
N351        N  0.70925105  0.06733463  0.64295207    -0.28740
C352        C  0.70391788  0.07642716  0.65113754    -0.04840
C353        C  0.69620495  0.06993809  0.66061151     0.07380
C354        C  0.69729493  0.05657943  0.65742274     0.01180
H355        H  0.70556904  0.08700375  0.65019670     0.08830
H356        H  0.69290399  0.04828760  0.66265963     0.07910
N357        N  0.73317674  0.07169197  0.60944421    -0.35930
N358        N  0.73622093  0.06143269  0.60178086    -0.28110
C359        C  0.74287469  0.06593623  0.59102689    -0.03350
C360        C  0.74427229  0.07961252  0.59211684     0.05260
C361        C  0.73806137  0.08286968  0.60393715     0.03350
H362        H  0.74668180  0.05969009  0.58315516     0.08460
H363        H  0.73695816  0.09270795  0.60812667     0.07290
C364        C  0.67184577  0.07613334  0.68923098     0.03320
C365        C  0.67611213  0.08877632  0.69320775    -0.12830
C366        C  0.68668106  0.09517405  0.68684329     0.00820
C367        C  0.69309103  0.08876389  0.67630175    -0.11350
C368        C  0.68911972  0.07610877  0.67203357     0.03320
C369        C  0.67852715  0.06970669  0.67867856    -0.10770
H370        H  0.67125295  0.09357573  0.70145685     0.08910
H371        H  0.70136473  0.09356046  0.67147304     0.06440
H372        H  0.67528496  0.05997877  0.67543860     0.06290
N373        N  0.96906602  0.37705496  0.72642063    -0.27100
N374        N  0.96974671  0.36612022  0.71914782    -0.34950
C375        C  0.98250516  0.36286938  0.71718884     0.01240
C376        C  0.99042546  0.37213196  0.72346228     0.07270
C377        C  0.98159651  0.38103237  0.72926388    -0.05830
H378        H  0.98573727  0.35434064  0.71150729     0.07940
H379        H  0.98408319  0.38973105  0.73506013     0.09140
Cu380      Cu  0.95386770  0.35550640  0.71171954     0.44170
Cu381      Cu  0.95086093  0.38569232  0.73197382     0.41990
Cu382      Cu  0.92190924  0.36585902  0.72200247     0.43880
N383        N  0.93692527  0.34589053  0.70541942    -0.34480
N384        N  0.92501126  0.34968615  0.70936934    -0.28740
C385        C  0.91592679  0.34151657  0.70399874    -0.04840
C386        C  0.92243472  0.33204212  0.69628965     0.07380
C387        C  0.93578527  0.33521176  0.69741594     0.01180
H388        H  0.90534781  0.34245715  0.70563616     0.08830
H389        H  0.94408715  0.32996253  0.69305592     0.07910
N390        N  0.92079327  0.38314700  0.73344433    -0.35930
N391        N  0.93108986  0.39075752  0.73650853    -0.28110
C392        C  0.92663365  0.40150967  0.74320956    -0.03350
C393        C  0.91295109  0.40047553  0.74462176     0.05260
C394        C  0.90964313  0.38868598  0.73836678     0.03350
H395        H  0.93291607  0.40934337  0.74703891     0.08460
H396        H  0.89978599  0.38454144  0.73725728     0.07290
N397        N  0.96902153  0.26618394  0.61532854    -0.27100
N398        N  0.96980833  0.27342883  0.62627381    -0.34950
C399        C  0.98260988  0.27530932  0.62942185     0.01240
C400        C  0.99043339  0.26901040  0.62007996     0.07270
C401        C  0.98150380  0.26328117  0.61124578    -0.05830
H402        H  0.98594159  0.28094877  0.63793752     0.07940
H403        H  0.98388928  0.25748896  0.60251781     0.09140
Cu404      Cu  0.95398096  0.28089375  0.63703243     0.44170
Cu405      Cu  0.95077103  0.26071493  0.60678200     0.41990
Cu406      Cu  0.92195247  0.27061879  0.62675567     0.43880
N407        N  0.93701068  0.28715300  0.64672810    -0.34480
N408        N  0.92509493  0.28318745  0.64294974    -0.28740
C409        C  0.91600300  0.28852136  0.65113558    -0.04840
C410        C  0.92249306  0.29623365  0.66060922     0.07380
C411        C  0.93585161  0.29514246  0.65742012     0.01180
H412        H  0.90542596  0.28687127  0.65019524     0.08830
H413        H  0.94414403  0.29953252  0.66265679     0.07910
N414        N  0.92073702  0.25926447  0.60943967    -0.35930
N415        N  0.93099699  0.25622033  0.60177702    -0.28110
C416        C  0.92649451  0.24956761  0.59102222    -0.03350
C417        C  0.91281804  0.24817055  0.59211064     0.05260
C418        C  0.90955969  0.25438068  0.60393108     0.03350
H419        H  0.93274158  0.24576042  0.58315117     0.08460
H420        H  0.89972081  0.25548355  0.60811989     0.07290
C421        C  0.91630013  0.32059451  0.68922701     0.03320
C422        C  0.90365828  0.31632766  0.69320641    -0.12830
C423        C  0.89726018  0.30575840  0.68684395     0.00820
C424        C  0.90366903  0.29934782  0.67630189    -0.11350
C425        C  0.91632351  0.30331937  0.67203146     0.03320
C426        C  0.92272598  0.31391278  0.67867443    -0.10770
H427        H  0.89885989  0.32118696  0.70145587     0.08910
H428        H  0.89887224  0.29107361  0.67147470     0.06440
H429        H  0.93245345  0.31715540  0.67543275     0.06290
N430        N  0.76896597  0.11242364  0.52689071    -0.27100
N431        N  0.77620387  0.12337958  0.52616216    -0.34950
C432        C  0.77807868  0.12661326  0.51339328     0.01240
C433        C  0.77178324  0.11731283  0.50553031     0.07270
C434        C  0.76605963  0.10841328  0.51439564    -0.05830
H435        H  0.78372177  0.13514987  0.51011464     0.07940
H436        H  0.76027874  0.09968892  0.51195966     0.09140
Cu437      Cu  0.78369837  0.13401931  0.54200339     0.44170
Cu438      Cu  0.76354143  0.10377649  0.54508372     0.41990
Cu439      Cu  0.77355799  0.12359276  0.57399473     0.43880
N440        N  0.79005523  0.14361612  0.55894408    -0.34480
N441        N  0.78615099  0.13979609  0.57086069    -0.28740
C442        C  0.79154809  0.14795520  0.57993704    -0.04840
C443        C  0.79923044  0.15744705  0.57342588     0.07380
C444        C  0.79805908  0.15430000  0.56007865     0.01180
H445        H  0.78995155  0.14699402  0.59051574     0.08830
H446        H  0.80239099  0.15956778  0.55177738     0.07910
N447        N  0.76217977  0.10625965  0.57512065    -0.35930
N448        N  0.75910585  0.09866516  0.56482107    -0.28110
C449        C  0.75245605  0.08787796  0.56925514    -0.03350
C450        C  0.75108910  0.08886653  0.58293176     0.05260
C451        C  0.75731302  0.10066812  0.58626203     0.03350
H452        H  0.74862898  0.08005354  0.56296121     0.08460
H453        H  0.75843559  0.10478667  0.59612431     0.07290
N454        N  0.88000913  0.22346927  0.52688479    -0.27100
N455        N  0.86905362  0.21623035  0.52615941    -0.34950
C456        C  0.86581752  0.21435299  0.51339174     0.01240
C457        C  0.87511578  0.22064764  0.50552585     0.07270
C458        C  0.88401681  0.22637365  0.51438827    -0.05830
H459        H  0.85728065  0.20870852  0.51011599     0.07940
H460        H  0.89274028  0.23215489  0.51194931     0.09140
Cu461      Cu  0.85841676  0.20873683  0.54200198     0.44170
Cu462      Cu  0.88865831  0.22889743  0.54507624     0.41990
Cu463      Cu  0.86884332  0.21887892  0.57398939     0.43880
N464        N  0.84882097  0.20237931  0.55894206    -0.34480
N465        N  0.85264142  0.20628399  0.57085818    -0.28740
C466        C  0.84448299  0.20088679  0.57993513    -0.04840
C467        C  0.83499100  0.19320415  0.57342458     0.07380
C468        C  0.83813738  0.19437524  0.56007724     0.01180
H469        H  0.84544444  0.20248394  0.59051368     0.08830
H470        H  0.83286913  0.19004344  0.55177634     0.07910
N471        N  0.88617430  0.23025995  0.57511354    -0.35930
N472        N  0.89376866  0.23333472  0.56481391    -0.28110
C473        C  0.90455476  0.23998622  0.56924825    -0.03350
C474        C  0.90356528  0.24135332  0.58292488     0.05260
C475        C  0.89176455  0.23512772  0.58625491     0.03350
H476        H  0.91237918  0.24381414  0.56295451     0.08460
H477        H  0.88764584  0.23400442  0.59611711     0.07290
C478        C  0.80631332  0.16888413  0.57956282     0.03320
C479        C  0.81688646  0.17554988  0.57314701    -0.12830
C480        C  0.82355353  0.18612247  0.57956205     0.00820
C481        C  0.81928575  0.19009662  0.59220263    -0.11350
C482        C  0.80873048  0.18370782  0.59860153     0.03320
C483        C  0.80234023  0.17315274  0.59220363    -0.10770
H484        H  0.82012597  0.17230977  0.56342132     0.08910
H485        H  0.82413036  0.19835993  0.59699736     0.06440
H486        H  0.79407666  0.16830904  0.59699924     0.06290
N487        N  0.22629460  0.31983760  0.79784019    -0.27100
N488        N  0.22675411  0.32953390  0.80666309    -0.34950
C489        C  0.23634121  0.32691639  0.81553509     0.01240
C490        C  0.24214892  0.31501567  0.81202849     0.07270
C491        C  0.23559418  0.31077019  0.80078578    -0.05830
H492        H  0.23887724  0.33323057  0.82385082     0.07940
H493        H  0.23732736  0.30174149  0.79521787     0.09140
Cu494      Cu  0.21451501  0.34581128  0.80622826     0.44170
Cu495      Cu  0.21290963  0.31905973  0.78256566     0.41990
Cu496      Cu  0.18924734  0.34588705  0.78084587     0.43880
N497        N  0.20146560  0.36117893  0.80326017    -0.34480
N498        N  0.19221712  0.36121853  0.79397694    -0.28740
C499        C  0.18547214  0.37268845  0.79457339    -0.04840
C500        C  0.19074631  0.38030103  0.80478065     0.07380
C501        C  0.20089916  0.37261387  0.81005276     0.01180
H502        H  0.17736458  0.37516330  0.78798515     0.08830
H503        H  0.20746739  0.37501429  0.81819418     0.07910
N504        N  0.18887854  0.32959297  0.76858077    -0.35930
N505        N  0.19770921  0.31989115  0.76909586    -0.28110
C506        C  0.19483369  0.31082726  0.75978453    -0.03350
C507        C  0.18362589  0.31506605  0.75315349     0.05260
C508        C  0.18006671  0.32696994  0.75893640     0.03350
H509        H  0.20042422  0.30179849  0.75809782     0.08460
H510        H  0.17175410  0.33328019  0.75634308     0.07290
N511        N  0.17216192  0.29413851  0.72637663    -0.27100
N512        N  0.16242035  0.30292585  0.72687277    -0.34950
C513        C  0.16498987  0.31176637  0.73649579     0.01240
C514        C  0.17690461  0.30828289  0.74229710     0.07270
C515        C  0.18120750  0.29708059  0.73569502    -0.05830
H516        H  0.15863161  0.32004657  0.73906286     0.07940
H517        H  0.19026419  0.29153999  0.73740980     0.09140
Cu518      Cu  0.14612980  0.30250136  0.71463913     0.44170
Cu519      Cu  0.17302581  0.27891126  0.71290530     0.41990
Cu520      Cu  0.14614258  0.27725334  0.68929761     0.43880
N521        N  0.13076136  0.29956712  0.70157741    -0.34480
N522        N  0.13075998  0.29032292  0.69229812    -0.28740
C523        C  0.11929934  0.29092479  0.68553971    -0.04840
C524        C  0.11164801  0.30109637  0.69083560     0.07380
C525        C  0.11930570  0.30634166  0.70101752     0.01180
H526        H  0.11685944  0.28437013  0.67740408     0.08830
H527        H  0.11687375  0.31445488  0.70760571     0.07910
N528        N  0.16247077  0.26502964  0.68882068    -0.35930
N529        N  0.17220027  0.26550643  0.69761806    -0.28110
C530        C  0.18127347  0.25621756  0.69464863    -0.03350
C531        C  0.17700908  0.24964883  0.68341636     0.05260
C532        C  0.16508202  0.25544429  0.67994416     0.03350
H533        H  0.19032510  0.25449958  0.70019383     0.08460
H534        H  0.15874415  0.25289624  0.67164672     0.07290
N535        N  0.29787585  0.16835859  0.72627258    -0.27100
N536        N  0.30672902  0.15867565  0.72678492    -0.34950
C537        C  0.31553428  0.16132714  0.73643648     0.01240
C538        C  0.31194632  0.17322733  0.74222553     0.07270
C539        C  0.30072765  0.17743040  0.73558671    -0.05830
H540        H  0.32386542  0.15504200  0.73903068     0.07940
H541        H  0.29511357  0.18644552  0.73726919     0.09140
Cu542      Cu  0.30637245  0.14237521  0.71447098     0.44170
Cu543      Cu  0.28266948  0.16916401  0.71279463     0.41990
Cu544      Cu  0.28105374  0.14244760  0.68907221     0.43880
N545        N  0.30342309  0.12704839  0.70127405    -0.34480
N546        N  0.29416752  0.12708399  0.69199322    -0.28740
C547        C  0.29476199  0.11565584  0.68517659    -0.04840
C548        C  0.30493615  0.10797280  0.69042467     0.07380
C549        C  0.31019374  0.11558891  0.70064582     0.01180
H550        H  0.28819352  0.11324705  0.67703711     0.08830
H551        H  0.31830549  0.11311570  0.70722990     0.07910
N552        N  0.26877689  0.15873628  0.68869210    -0.35930
N553        N  0.26924874  0.16841234  0.69753859    -0.28110
C554        C  0.25994158  0.17748905  0.69463259    -0.03350
C555        C  0.25336269  0.17327971  0.68338906     0.05260
C556        C  0.25917000  0.16138364  0.67984328     0.03350
H557        H  0.25822235  0.18650511  0.70022542     0.08460
H558        H  0.25662205  0.15509613  0.67151113     0.07290
N559        N  0.22663503  0.19424006  0.67179571    -0.27100
N560        N  0.22715573  0.18544979  0.66207158    -0.34950
C561        C  0.23676947  0.17659611  0.66468901     0.01240
C562        C  0.24253328  0.18007718  0.67661670     0.07270
C563        C  0.23592054  0.19128980  0.68087648    -0.05830
H564        H  0.23935354  0.16830659  0.65835748     0.07940
H565        H  0.23760499  0.19683288  0.68992699     0.09140
Cu566      Cu  0.21494633  0.18589895  0.64575270     0.44170
Cu567      Cu  0.21317923  0.20948045  0.67259170     0.41990
Cu568      Cu  0.18958603  0.21122226  0.64571100     0.43880
N569        N  0.20188777  0.18885643  0.63036845    -0.34480
N570        N  0.19261018  0.19811847  0.63034804    -0.28740
C571        C  0.18586464  0.19752274  0.61888193    -0.04840
C572        C  0.19116344  0.18733908  0.61124530     0.07380
C573        C  0.20133553  0.18208009  0.61892082     0.01180
H574        H  0.17773690  0.20409553  0.61642539     0.08830
H575        H  0.20792281  0.17395574  0.61650100     0.07910
N576        N  0.18912672  0.22345140  0.66204369    -0.35930
N577        N  0.19793117  0.22292663  0.67176426    -0.28110
C578        C  0.19499900  0.23220439  0.68084805    -0.03350
C579        C  0.18378122  0.23882523  0.67660728     0.05260
C580        C  0.18027658  0.23306820  0.66467753     0.03350
H581        H  0.20055880  0.23387566  0.68989424     0.08460
H582        H  0.17197318  0.23566124  0.65835782     0.07290
N583        N  0.32333702  0.19424610  0.76899563    -0.27100
N584        N  0.33311536  0.18549626  0.76851476    -0.34950
C585        C  0.33057744  0.17662822  0.75890193     0.01240
C586        C  0.31864713  0.18005077  0.75308752     0.07270
C587        C  0.31430439  0.19125014  0.75967717    -0.05830
H588        H  0.33696795  0.16836919  0.75634778     0.07940
H589        H  0.30522715  0.19675389  0.75795160     0.09140
Cu590      Cu  0.34941825  0.18600667  0.78076860     0.44170
Cu591      Cu  0.32240723  0.20950432  0.78245436     0.41990
Cu592      Cu  0.34931165  0.21124416  0.80607387     0.43880
N593        N  0.36477218  0.18897730  0.79387638    -0.34480
N594        N  0.36472881  0.19822653  0.80314976    -0.28740
C595        C  0.37616469  0.19765545  0.80995503    -0.04840
C596        C  0.38385436  0.18749631  0.80469958     0.07380
C597        C  0.37624061  0.18222722  0.79448879     0.01180
H598        H  0.37856214  0.20421851  0.81809727     0.08830
H599        H  0.37871061  0.17411353  0.78791600     0.07910
N600        N  0.33297155  0.22342113  0.80652851    -0.35930
N601        N  0.32323054  0.22293054  0.79774383    -0.28110
C602        C  0.31415550  0.23221418  0.80073253    -0.03350
C603        C  0.31843829  0.23878367  0.81196085     0.05260
C604        C  0.33037140  0.23300028  0.81540958     0.03350
H605        H  0.30509144  0.23392752  0.79520621     0.08460
H606        H  0.33672280  0.23554991  0.82369634     0.07290
N607        N  0.26887145  0.29412897  0.82368191    -0.27100
N608        N  0.26834743  0.30294402  0.83338110    -0.34950
C609        C  0.25872660  0.31178053  0.83074280     0.01240
C610        C  0.25296959  0.30825452  0.81882623     0.07270
C611        C  0.25958719  0.29704076  0.81459459    -0.05830
H612        H  0.25613627  0.32008718  0.83704966     0.07940
H613        H  0.25791025  0.29147141  0.80555895     0.09140
Cu614      Cu  0.28056620  0.30252954  0.84967811     0.44170
Cu615      Cu  0.28232026  0.27891308  0.82291153     0.41990
Cu616      Cu  0.30595207  0.27718834  0.84971961     0.43880
N617        N  0.29361966  0.29954857  0.86504676    -0.34480
N618        N  0.30290102  0.29028996  0.86507559    -0.28740
C619        C  0.30962571  0.29088042  0.87655406    -0.04840
C620        C  0.30430566  0.30105477  0.88418436     0.07380
C621        C  0.29414664  0.30631555  0.87649668     0.01180
H622        H  0.31775211  0.28431118  0.87902452     0.08830
H623        H  0.28754677  0.31443230  0.87890737     0.07910
N624        N  0.30638577  0.26495884  0.83338779    -0.35930
N625        N  0.29755630  0.26548468  0.82369185    -0.28110
C626        C  0.30045930  0.25621637  0.81459265    -0.03350
C627        C  0.31168600  0.24959636  0.81879767     0.05260
C628        C  0.31522763  0.25534483  0.83072257     0.03350
H629        H  0.29487356  0.25455257  0.80556110     0.08460
H630        H  0.32354965  0.25274863  0.83701636     0.07290
N631        N  0.38082367  0.02284695  0.72573192    -0.27100
N632        N  0.36992162  0.02214967  0.71840038    -0.34950
C633        C  0.36673232  0.00938114  0.71639392     0.01240
C634        C  0.37599636  0.00146338  0.72269472     0.07270
C635        C  0.38483586  0.01031452  0.72856323    -0.05830
H636        H  0.35823756  0.00613711  0.71066592     0.07940
H637        H  0.39351697  0.00783868  0.73440236     0.09140
Cu638      Cu  0.35925185  0.03803162  0.71096524     0.44170
Cu639      Cu  0.38936750  0.04109453  0.73138245     0.41990
Cu640      Cu  0.36945358  0.07001790  0.72134189     0.43880
N641        N  0.34954941  0.05496835  0.70467195    -0.34480
N642        N  0.35328755  0.06688826  0.70865488    -0.28740
C643        C  0.34507454  0.07595491  0.70328761    -0.04840
C644        C  0.33562913  0.06943592  0.69554250     0.07380
C645        C  0.33886833  0.05609185  0.69665043     0.01180
H646        H  0.34596588  0.08653261  0.70495059     0.08830
H647        H  0.33366359  0.04778076  0.69226100     0.07910
N648        N  0.38670836  0.07117865  0.73288689    -0.35930
N649        N  0.39434668  0.06090016  0.73598232    -0.28110
C650        C  0.40505016  0.06538905  0.74275173    -0.03350
C651        C  0.40395814  0.07907256  0.74418176     0.05260
C652        C  0.39218038  0.08234193  0.73785924     0.03350
H653        H  0.41289289  0.05912695  0.74661643     0.08460
H654        H  0.38799858  0.09218664  0.73673951     0.07290
N655        N  0.27009575  0.02258709  0.61432762    -0.27100
N656        N  0.27735431  0.02181270  0.62527485    -0.34950
C657        C  0.27932471  0.00900392  0.62838453     0.01240
C658        C  0.27307526  0.00115458  0.61902111     0.07270
C659        C  0.26728101  0.01008995  0.61021268    -0.05830
H660        H  0.28498630  0.00567931  0.63689592     0.07940
H661        H  0.26149452  0.00769439  0.60148027     0.09140
Cu662      Cu  0.28469940  0.03769969  0.63609722     0.44170
Cu663      Cu  0.26447111  0.04086422  0.60581623     0.41990
Cu664      Cu  0.27419725  0.06972793  0.62582885     0.43880
N665        N  0.29080980  0.05473056  0.64586018    -0.34480
N666        N  0.28675736  0.06663013  0.64209636    -0.28740
C667        C  0.29201159  0.07574217  0.65032293    -0.04840
C668        C  0.29977200  0.06929361  0.65980553     0.07380
C669        C  0.29878022  0.05593025  0.65657540     0.01180
H670        H  0.29028848  0.08631020  0.64939707     0.08830
H671        H  0.30324131  0.04765741  0.66179471     0.07910
N672        N  0.26281495  0.07092182  0.60847699    -0.35930
N673        N  0.25982099  0.06065267  0.60080495    -0.28110
C674        C  0.25311991  0.06514381  0.59005623    -0.03350
C675        C  0.25163238  0.07882188  0.59115074     0.05260
C676        C  0.25785002  0.08208367  0.60297826     0.03350
H677        H  0.24933937  0.05888667  0.58218051     0.08460
H678        H  0.25889665  0.09192110  0.60718173     0.07290
C679        C  0.30685647  0.07550048  0.67123930     0.03320
C680        C  0.30287033  0.08816737  0.67550043    -0.12830
C681        C  0.30926968  0.09459206  0.68605430     0.00820
C682        C  0.31985774  0.08820068  0.69242182    -0.11350
C683        C  0.32415315  0.07555616  0.68845743     0.03320
C684        C  0.31747115  0.06911634  0.67790288    -0.10770
H685        H  0.29459201  0.09296267  0.67065920     0.08910
H686        H  0.32471114  0.09301024  0.70066946     0.06440
H687        H  0.32072965  0.05938766  0.67467639     0.06290
N688        N  0.02650058  0.37686807  0.72625559    -0.27100
N689        N  0.02573927  0.36593499  0.71898706    -0.34950
C690        C  0.01294814  0.36276273  0.71709819     0.01240
C691        C  0.00510839  0.37207863  0.72341647     0.07270
C692        C  0.01401196  0.38092167  0.72916645    -0.05830
H693        H  0.00963633  0.35425295  0.71143673     0.07940
H694        H  0.01160574  0.38963594  0.73497527     0.09140
Cu695      Cu  0.04158101  0.35523540  0.71149125     0.44170
Cu696      Cu  0.04472130  0.38543749  0.73173680     0.41990
Cu697      Cu  0.07360234  0.36553912  0.72177167     0.43880
N698        N  0.05854876  0.34558330  0.70518083    -0.34480
N699        N  0.07046684  0.34935969  0.70914296    -0.28740
C700        C  0.07955386  0.34118492  0.70377032    -0.04840
C701        C  0.07305569  0.33172552  0.69603817     0.07380
C702        C  0.05969904  0.33491136  0.69715935     0.01180
H703        H  0.09013355  0.34211727  0.70541161     0.08830
H704        H  0.05140121  0.32967986  0.69277357     0.07910
N705        N  0.07476200  0.38284922  0.73318724    -0.35930
N706        N  0.06447210  0.39047736  0.73624204    -0.28110
C707        C  0.06892390  0.40123514  0.74292527    -0.03350
C708        C  0.08260183  0.40019160  0.74433633     0.05260
C709        C  0.08591369  0.38838826  0.73810186     0.03350
H710        H  0.06263985  0.40907535  0.74674734     0.08460
H711        H  0.09577143  0.38423369  0.73700542     0.07290
N712        N  0.02648884  0.26598638  0.61506810    -0.27100
N713        N  0.02581866  0.27325628  0.62600326    -0.34950
C714        C  0.01306243  0.27522163  0.62926044     0.01240
C715        C  0.00512494  0.26895813  0.62000464     0.07270
C716        C  0.01394850  0.26315419  0.61109900    -0.05830
H717        H  0.00984215  0.28090054  0.63779238     0.07940
H718        H  0.01144969  0.25736043  0.60240346     0.09140
Cu719      Cu  0.04171111  0.28067381  0.63662041     0.44170
Cu720      Cu  0.04471063  0.26042402  0.60642780     0.41990
Cu721      Cu  0.07368245  0.27041088  0.62626790     0.43880
N722        N  0.05865099  0.28696801  0.64626476    -0.34480
N723        N  0.07057082  0.28302471  0.64247653    -0.28740
C724        C  0.07964521  0.28838125  0.65067286    -0.04840
C725        C  0.07312675  0.29607615  0.66015409     0.07380
C726        C  0.05977871  0.29495298  0.65695957     0.01180
H727        H  0.09022643  0.28674470  0.64974838     0.08830
H728        H  0.05146951  0.29930160  0.66220468     0.07910
N729        N  0.07480361  0.25896499  0.60896319    -0.35930
N730        N  0.06450399  0.25589489  0.60135420    -0.28110
C731        C  0.06896685  0.24919449  0.59060381    -0.03350
C732        C  0.08265694  0.24778362  0.59163308     0.05260
C733        C  0.08595780  0.25404365  0.60342357     0.03350
H734        H  0.06268346  0.24536058  0.58277269     0.08460
H735        H  0.09581603  0.25515481  0.60756987     0.07290
C736        C  0.07924983  0.30311990  0.67162890     0.03320
C737        C  0.09188942  0.29911905  0.67591395    -0.12830
C738        C  0.09827512  0.30545800  0.68650731     0.00820
C739        C  0.09186086  0.31600004  0.69291921    -0.11350
C740        C  0.07921553  0.32029871  0.68893352     0.03320
C741        C  0.07281869  0.31367540  0.67831988    -0.10770
H742        H  0.09669560  0.29087096  0.67105112     0.08910
H743        H  0.09664775  0.32080827  0.70120888     0.06440
H744        H  0.06309369  0.31693539  0.67506972     0.06290
N745        N  0.22652429  0.11160905  0.52589414    -0.27100
N746        N  0.21925614  0.12255567  0.52514539    -0.34950
C747        C  0.21733563  0.12573066  0.51235619     0.01240
C748        C  0.22362972  0.11640702  0.50449877     0.07270
C749        C  0.22939865  0.10755516  0.51340022    -0.05830
H750        H  0.21166881  0.13425029  0.50905354     0.07940
H751        H  0.23519754  0.09883181  0.51098629     0.09140
Cu752      Cu  0.21180625  0.13326879  0.54102812     0.44170
Cu753      Cu  0.23205651  0.10301009  0.54412273     0.41990
Cu754      Cu  0.22213527  0.12284118  0.57305133     0.43880
N755        N  0.20554904  0.14291980  0.55804107    -0.34480
N756        N  0.20953145  0.13911139  0.56994473    -0.28740
C757        C  0.20418285  0.14729336  0.57904385    -0.04840
C758        C  0.19643706  0.15678588  0.57257845     0.07380
C759        C  0.19753577  0.15361091  0.55922145     0.01180
H760        H  0.20583624  0.14633682  0.58961556     0.08830
H761        H  0.19312638  0.15885841  0.55094099     0.07910
N762        N  0.23355451  0.10547160  0.57417889    -0.35930
N763        N  0.23660572  0.09787846  0.56386945    -0.28110
C764        C  0.24330317  0.08709642  0.56828956    -0.03350
C765        C  0.24473236  0.08807552  0.58197005     0.05260
C766        C  0.23848551  0.09987906  0.58530744     0.03350
H767        H  0.24712419  0.07927883  0.56198183     0.08460
H768        H  0.23740007  0.10400166  0.59517136     0.07290
N769        N  0.11535298  0.22291092  0.52628396    -0.27100
N770        N  0.12628744  0.21562657  0.52557423    -0.34950
C771        C  0.12951469  0.21370275  0.51281091     0.01240
C772        C  0.12023762  0.22001035  0.50491677     0.07270
C773        C  0.11135360  0.22579613  0.51376980    -0.05830
H774        H  0.13803472  0.20801632  0.50955559     0.07940
H775        H  0.10264663  0.23160565  0.51130933     0.09140
Cu776      Cu  0.13692048  0.20811978  0.54143113     0.44170
Cu777      Cu  0.10673707  0.22840432  0.54451098     0.41990
Cu778      Cu  0.12656016  0.21823140  0.57344958     0.43880
N779        N  0.14656630  0.20170419  0.55833834    -0.34480
N780        N  0.14277971  0.20558626  0.57027218    -0.28740
C781        C  0.15098142  0.20015702  0.57931114    -0.04840
C782        C  0.16046533  0.19247850  0.57275831     0.07380
C783        C  0.15726152  0.19369007  0.55942417     0.01180
H784        H  0.15006233  0.20173641  0.58989499     0.08830
H785        H  0.16250564  0.18938405  0.55109635     0.07910
N786        N  0.10924100  0.22972239  0.57458972    -0.35930
N787        N  0.10165107  0.23285108  0.56429058    -0.28110
C788        C  0.09089198  0.23955595  0.56874017    -0.03350
C789        C  0.09188631  0.24091166  0.58242559     0.05260
C790        C  0.10367253  0.23461590  0.58573802     0.03350
H791        H  0.08307929  0.24343191  0.56244946     0.08460
H792        H  0.10779543  0.23346436  0.59559914     0.07290
C793        C  0.18930803  0.16820604  0.57876936     0.03320
C794        C  0.19327866  0.17246368  0.59143081    -0.12830
C795        C  0.18685026  0.18299300  0.59786417     0.00820
C796        C  0.17624836  0.18934937  0.59148891    -0.11350
C797        C  0.17196364  0.18539531  0.57884614     0.03320
C798        C  0.17867888  0.17486115  0.57238939    -0.10770
H799        H  0.20157013  0.16763645  0.59621628     0.08910
H800        H  0.17137463  0.19758138  0.59630959     0.06440
H801        H  0.17543470  0.17164200  0.56265732     0.06290
N802        N  0.11527516  0.46548869  0.76922174    -0.27100
N803        N  0.12619760  0.46617634  0.77651960    -0.34950
C804        C  0.12946506  0.47893606  0.77841826     0.01240
C805        C  0.12022468  0.48684496  0.77207789     0.07270
C806        C  0.11132178  0.47801141  0.76630075    -0.05830
H807        H  0.13798765  0.48217698  0.78410659     0.07940
H808        H  0.10263625  0.48048916  0.76046917     0.09140
Cu809      Cu  0.13676565  0.45030522  0.78406475     0.44170
Cu810      Cu  0.10661447  0.44729527  0.76373987     0.41990
Cu811      Cu  0.12636688  0.41833663  0.77390185     0.43880
N812        N  0.14633090  0.43336057  0.79047380    -0.34480
N813        N  0.14251449  0.42144232  0.78656603    -0.28740
C814        C  0.15065992  0.41235389  0.79198438    -0.04840
C815        C  0.16014204  0.41886274  0.79967999     0.07380
C816        C  0.15700145  0.43221890  0.79849866     0.01180
H817        H  0.14970518  0.40177218  0.79038010     0.08830
H818        H  0.16227222  0.44052103  0.80282609     0.07910
N819        N  0.10911093  0.41722601  0.76241026    -0.35930
N820        N  0.10152806  0.42753167  0.75927973    -0.28110
C821        C  0.09078700  0.42308483  0.75255842    -0.03350
C822        C  0.09180173  0.40939744  0.75120324     0.05260
C823        C  0.10356550  0.40607464  0.75751074     0.03350
H824        H  0.08297769  0.42937645  0.74867402     0.08460
H825        H  0.10768847  0.39620945  0.75866918     0.07290
N826        N  0.22597962  0.46550610  0.88053634    -0.27100
N827        N  0.21874684  0.46623784  0.86957438    -0.34950
C828        C  0.21688528  0.47901801  0.86633452     0.01240
C829        C  0.22318465  0.48688337  0.87563383     0.07270
C830        C  0.22889506  0.47800610  0.88454028    -0.05830
H831        H  0.21125766  0.48230496  0.85778631     0.07940
H832        H  0.23468182  0.48043802  0.89326260     0.09140
Cu833      Cu  0.21127406  0.45037587  0.85891197     0.44170
Cu834      Cu  0.23141117  0.44730465  0.88920154     0.41990
Cu835      Cu  0.22148448  0.41838876  0.86934259     0.43880
N836        N  0.20500282  0.43340120  0.84927244    -0.34480
N837        N  0.20894575  0.42148728  0.85309359    -0.28740
C838        C  0.20361175  0.41238947  0.84491318    -0.04840
C839        C  0.19592265  0.41888011  0.83540708     0.07380
C840        C  0.19702974  0.43224012  0.83856624     0.01180
H841        H  0.20524516  0.40181016  0.84587567     0.08830
H842        H  0.19266548  0.44053320  0.83329741     0.07910
N843        N  0.23282163  0.41725785  0.88669577    -0.35930
N844        N  0.23587247  0.42755302  0.89430746    -0.28110
C845        C  0.24253131  0.42310194  0.90508727    -0.03350
C846        C  0.24392609  0.40942020  0.90407119     0.05260
C847        C  0.23770766  0.40610574  0.89226649     0.03350
H848        H  0.24635442  0.42938834  0.91291922     0.08460
H849        H  0.23661333  0.39624770  0.88812367     0.07290
C850        C  0.18884721  0.41271755  0.82397568     0.03320
C851        C  0.17825794  0.41913319  0.81731991    -0.12830
C852        C  0.17158737  0.41271937  0.80675384     0.00820
C853        C  0.17586454  0.40008061  0.80276792    -0.11350
C854        C  0.18643206  0.39367152  0.80914019     0.03320
C855        C  0.19282751  0.40006460  0.81970351    -0.10770
H856        H  0.17500812  0.42886035  0.82056218     0.08910
H857        H  0.17101527  0.39529420  0.79450379     0.06440
H858        H  0.20109851  0.39525954  0.82454596     0.06290
N859        N  0.26893822  0.37685424  0.96934157    -0.27100
N860        N  0.27618956  0.36589832  0.97007579    -0.34950
C861        C  0.27810897  0.36269780  0.98284980     0.01240
C862        C  0.27182973  0.37201789  0.99070636     0.07270
C863        C  0.26606949  0.38089527  0.98183399    -0.05830
H864        H  0.28376387  0.35416459  0.98613720     0.07940
H865        H  0.26028191  0.38962218  0.98426312     0.09140
Cu866      Cu  0.28362371  0.35518967  0.95423512     0.44170
Cu867      Cu  0.26341839  0.38546472  0.95115375     0.41990
Cu868      Cu  0.27329125  0.36551143  0.92228606     0.43880
N869        N  0.28987218  0.34550496  0.93728578    -0.34480
N870        N  0.28588591  0.34928771  0.92538031    -0.28740
C871        C  0.29122826  0.34109980  0.91629322    -0.04840
C872        C  0.29896855  0.33162734  0.92278173     0.07380
C873        C  0.29788024  0.33481697  0.93613058     0.01180
H874        H  0.28957102  0.34203994  0.90572074     0.08830
H875        H  0.30228955  0.32958585  0.94442117     0.07910
N876        N  0.26191525  0.38285466  0.92113946    -0.35930
N877        N  0.25888556  0.39049967  0.93141457    -0.28110
C878        C  0.25220974  0.40126956  0.92695326    -0.03350
C879        C  0.25078159  0.40021353  0.91328578     0.05260
C880        C  0.25699714  0.38839480  0.90999054     0.03350
H881        H  0.24840736  0.40912699  0.93322306     0.08460
H882        H  0.25807753  0.38422746  0.90014485     0.07290
N883        N  0.37999863  0.26586243  0.96941315    -0.27100
N884        N  0.36905057  0.27312947  0.97010541    -0.34950
C885        C  0.36581316  0.27507098  0.98286364     0.01240
C886        C  0.37509698  0.26879303  0.99077276     0.07270
C887        C  0.38399554  0.26300772  0.98193486    -0.05830
H888        H  0.35727808  0.28074362  0.98610470     0.07940
H889        H  0.39270758  0.25721285  0.98441080     0.09140
Cu890      Cu  0.35839631  0.28057265  0.95423668     0.44170
Cu891      Cu  0.38864094  0.26032497  0.95120397     0.41990
Cu892      Cu  0.36879849  0.27032880  0.92227791     0.43880
N893        N  0.34875833  0.28686836  0.93728537    -0.34480
N894        N  0.35257175  0.28293190  0.92537901    -0.28740
C895        C  0.34438320  0.28828902  0.91629218    -0.04840
C896        C  0.33487730  0.29597656  0.92278502     0.07380
C897        C  0.33805016  0.29485072  0.93613388     0.01180
H898        H  0.34533265  0.28665869  0.90571886     0.08830
H899        H  0.33278384  0.29919819  0.94442647     0.07910
N900        N  0.38611815  0.25889182  0.92114012    -0.35930
N901        N  0.39373305  0.25581078  0.93143288    -0.28110
C902        C  0.40449681  0.24911881  0.92697269    -0.03350
C903        C  0.40346947  0.24772714  0.91328956     0.05260
C904        C  0.39166672  0.25398828  0.90999052     0.03350
H905        H  0.41233637  0.24528006  0.93325248     0.08460
H906        H  0.38751832  0.25511315  0.90013698     0.07290
C907        C  0.30609032  0.32020964  0.91662545     0.03320
C908        C  0.30214415  0.31593629  0.90396820    -0.12830
C909        C  0.30858492  0.30539878  0.89756987     0.00820
C910        C  0.31916339  0.29904417  0.90398508    -0.11350
C911        C  0.32340928  0.30302548  0.91663346     0.03320
C912        C  0.31669271  0.31357272  0.92304508    -0.10770
H913        H  0.29386593  0.32076059  0.89915923     0.08910
H914        H  0.32404713  0.29080074  0.89919270     0.06440
H915        H  0.31991698  0.31681644  0.93277558     0.06290
N916        N  0.46913484  0.11192360  0.76935823    -0.27100
N917        N  0.46981207  0.12284918  0.77664578    -0.34950
C918        C  0.48257496  0.12609418  0.77859931     0.01240
C919        C  0.49049877  0.11683697  0.77230730     0.07270
C920        C  0.48166557  0.10794799  0.76650129    -0.05830
H921        H  0.48581005  0.13461282  0.78429196     0.07940
H922        H  0.48415020  0.09925505  0.76069362     0.09140
Cu923      Cu  0.45389925  0.13343920  0.78410237     0.44170
Cu924      Cu  0.45093266  0.10328108  0.76380763     0.41990
Cu925      Cu  0.42189859  0.12301058  0.77383411     0.43880
N926        N  0.43692255  0.14302283  0.79044234    -0.34480
N927        N  0.42500527  0.13921990  0.78650004    -0.28740
C928        C  0.41592173  0.14738750  0.79190116    -0.04840
C929        C  0.42242620  0.15686111  0.79962707     0.07380
C930        C  0.43577916  0.15369124  0.79847002     0.01180
H931        H  0.40533999  0.14644910  0.79027729     0.08830
H932        H  0.44408190  0.15893858  0.80282765     0.07910
N933        N  0.42084049  0.10569318  0.76234235    -0.35930
N934        N  0.43118125  0.09813727  0.75926683    -0.28110
C935        C  0.42679459  0.08737201  0.75253961    -0.03350
C936        C  0.41310517  0.08832369  0.75111203     0.05260
C937        C  0.40972538  0.10009443  0.75739110     0.03350
H938        H  0.43313182  0.07958604  0.74869482     0.08460
H939        H  0.39984184  0.10418673  0.75848803     0.07290
N940        N  0.46889618  0.22290303  0.88064793    -0.27100
N941        N  0.46964957  0.21564357  0.86970998    -0.34950
C942        C  0.48244110  0.21374579  0.86652743     0.01240
C943        C  0.49030282  0.22004518  0.87583731     0.07270
C944        C  0.48139821  0.22579587  0.88469101    -0.05830
H945        H  0.48574125  0.20808789  0.85801227     0.07940
H946        H  0.48381616  0.23159306  0.89340722     0.09140
Cu947      Cu  0.45378393  0.20816078  0.85901814     0.44170
Cu948      Cu  0.45063533  0.22837532  0.88922558     0.41990
Cu949      Cu  0.42171471  0.21832911  0.86935549     0.43880
N950        N  0.43682859  0.20181742  0.84934440    -0.34480
N951        N  0.42489316  0.20573446  0.85312148    -0.28740
C952        C  0.41583461  0.20035173  0.84491689    -0.04840
C953        C  0.42236758  0.19265774  0.83544141     0.07380
C954        C  0.43571594  0.19381738  0.83865093     0.01180
H955        H  0.40524837  0.20196041  0.84583601     0.08830
H956        H  0.44403501  0.18947383  0.83341745     0.07910
N957        N  0.42054935  0.22974436  0.88669703    -0.35930
N958        N  0.43084504  0.23283142  0.89430421    -0.28110
C959        C  0.42638197  0.23950126  0.90507093    -0.03350
C960        C  0.41269110  0.24087530  0.90406294     0.05260
C961        C  0.40938922  0.23462752  0.89226210     0.03350
H962        H  0.43266703  0.24334202  0.91289751     0.08460
H963        H  0.39952864  0.23350403  0.88812471     0.07290
C964        C  0.41628127  0.16831408  0.80671883     0.03320
C965        C  0.40364261  0.17260178  0.80271653    -0.12830
C966        C  0.39722324  0.18316435  0.80908269     0.00820
C967        C  0.40359995  0.18954342  0.81966587    -0.11350
C968        C  0.41624731  0.18556651  0.82397336     0.03320
C969        C  0.42268102  0.17498328  0.81731245    -0.10770
H970        H  0.39886293  0.16776480  0.79444093     0.08910
H971        H  0.39878235  0.19780515  0.82449807     0.06440
H972        H  0.43240854  0.17173883  0.82057038     0.06290
N973        N  0.69827842  0.82026540  0.72638017    -0.27100
N974        N  0.68949146  0.83000729  0.72687609    -0.34950
C975        C  0.68065031  0.82743792  0.73649885     0.01240
C976        C  0.68413304  0.81552295  0.74230021     0.07270
C977        C  0.69533555  0.81121981  0.73569837    -0.05830
H978        H  0.67237013  0.83379640  0.73906574     0.07940
H979        H  0.70087568  0.80216297  0.73741313     0.09140
Cu980      Cu  0.68991792  0.84629772  0.71464184     0.44170
Cu981      Cu  0.71350604  0.81940108  0.71290914     0.41990
Cu982      Cu  0.71516609  0.84628359  0.68929957     0.43880
N983        N  0.69285310  0.86166590  0.70157945    -0.34480
N984        N  0.70209717  0.86166687  0.69229980    -0.28740
C985        C  0.70149549  0.87312743  0.68554115    -0.04840
C986        C  0.69132425  0.88077916  0.69083726     0.07380
C987        C  0.68607899  0.87312173  0.70101954     0.01180
H988        H  0.70805006  0.87556709  0.67740503     0.08830
H989        H  0.67796596  0.87555403  0.70760819     0.07910
N990        N  0.72738855  0.82995442  0.68882393    -0.35930
N991        N  0.72691100  0.82022544  0.69762187    -0.28110
C992        C  0.73619916  0.81115137  0.69465287    -0.03350
C993        C  0.74276819  0.81541467  0.68342030     0.05260
C994        C  0.73697373  0.82734195  0.67994745     0.03350
H995        H  0.73791628  0.80209996  0.70019841     0.08460
H996        H  0.73952222  0.83367905  0.67164957     0.07290
N997        N  0.79817306  0.76578470  0.67179744    -0.27100
N998        N  0.80696293  0.76526292  0.66207283    -0.34950
C999        C  0.81581586  0.75564845  0.66469014     0.01240
C1000       C  0.81233463  0.74988540  0.67661824     0.07270
C1001       C  0.80112281  0.75649930  0.68087835    -0.05830
H1002       H  0.82410496  0.75306326  0.65835818     0.07940
H1003       H  0.79557978  0.75481561  0.68992919     0.09140
Cu1004     Cu  0.80651365  0.77747177  0.64575355     0.44170
Cu1005     Cu  0.78293351  0.77924125  0.67259435     0.41990
Cu1006     Cu  0.78119111  0.80283305  0.64571363     0.43880
N1007       N  0.80355468  0.79053011  0.63036941    -0.34480
N1008       N  0.79429289  0.79980791  0.63034967    -0.28740
C1009       C  0.79488754  0.80655318  0.61888334    -0.04840
C1010       C  0.80507028  0.80125396  0.61124588     0.07380
C1011       C  0.81032986  0.79108193  0.61892107     0.01180
H1012       H  0.78831475  0.81468102  0.61642724     0.08830
H1013       H  0.81845396  0.78449446  0.61650073     0.07910
N1014       N  0.76896342  0.80329393  0.66204694    -0.35930
N1015       N  0.76948814  0.79448992  0.67176787    -0.28110
C1016       C  0.76021111  0.79742321  0.68085219    -0.03350
C1017       C  0.75359094  0.80864128  0.67661120     0.05260
C1018       C  0.75934751  0.81214491  0.66468090     0.03350
H1019       H  0.75853987  0.79186401  0.68989876     0.08460
H1020       H  0.75675479  0.82044804  0.65836091     0.07290
N1021       N  0.82404625  0.69454439  0.72627670    -0.27100
N1022       N  0.83372853  0.68569053  0.72678818    -0.34950
C1023       C  0.83107794  0.67688547  0.73643971     0.01240
C1024       C  0.81917880  0.68047403  0.74222982     0.07270
C1025       C  0.81497522  0.69169298  0.73559183    -0.05830
H1026       H  0.83736302  0.66855407  0.73903294     0.07940
H1027       H  0.80596043  0.69730744  0.73727555     0.09140
Cu1028     Cu  0.85002701  0.68604374  0.71447458     0.44170
Cu1029     Cu  0.82324172  0.70975045  0.71279848     0.41990
Cu1030     Cu  0.84995846  0.71136022  0.68907563     0.43880
N1031       N  0.86535330  0.68898883  0.70127900    -0.34480
N1032       N  0.86531935  0.69824394  0.69199787    -0.28740
C1033       C  0.87674724  0.69764677  0.68518132    -0.04840
C1034       C  0.88442794  0.68747114  0.69043007     0.07380
C1035       C  0.87681115  0.68221554  0.70065135     0.01180
H1036       H  0.87915708  0.70421442  0.67704164     0.08830
H1037       H  0.87928248  0.67410333  0.70723536     0.07910
N1038       N  0.83367188  0.72363949  0.68869462    -0.35930
N1039       N  0.82399576  0.72316973  0.69754137    -0.28110
C1040       C  0.81492048  0.73247801  0.69463489    -0.03350
C1041       C  0.81913076  0.73905546  0.68339083     0.05260
C1042       C  0.83102595  0.73324615  0.67984513     0.03350
H1043       H  0.80590460  0.73419900  0.70022789     0.08460
H1044       H  0.83731385  0.73579260  0.67151261     0.07290
N1045       N  0.79816487  0.66908178  0.76900166    -0.27100
N1046       N  0.80691585  0.65930461  0.76852022    -0.34950
C1047       C  0.81578236  0.66184327  0.75890625     0.01240
C1048       C  0.81235734  0.67377286  0.75309212     0.07270
C1049       C  0.80115837  0.67811453  0.75968274    -0.05830
H1050       H  0.82404209  0.65545384  0.75635135     0.07940
H1051       H  0.79565332  0.68719094  0.75795767     0.09140
Cu1052     Cu  0.80640901  0.64300283  0.78077480     0.44170
Cu1053     Cu  0.78290882  0.67001049  0.78246107     0.41990
Cu1054     Cu  0.78117250  0.64310983  0.80608286     0.43880
N1055       N  0.80343966  0.62765000  0.79388344    -0.34480
N1056       N  0.79419094  0.62769347  0.80315756    -0.28740
C1057       C  0.79476242  0.61625768  0.80996270    -0.04840
C1058       C  0.80492116  0.60856803  0.80470640     0.07380
C1059       C  0.81018972  0.61618164  0.79449528     0.01180
H1060       H  0.78819953  0.61386014  0.81810534     0.08830
H1061       H  0.81830299  0.61371145  0.78792164     0.07910
N1062       N  0.76899449  0.65944929  0.80653693    -0.35930
N1063       N  0.76948456  0.66918891  0.79775078    -0.28110
C1064       C  0.76020127  0.67826446  0.80073817    -0.03350
C1065       C  0.75363220  0.67398351  0.81196727     0.05260
C1066       C  0.75941553  0.66205088  0.81541796     0.03350
H1067       H  0.75848794  0.68732745  0.79521035     0.08460
H1068       H  0.75686606  0.65570096  0.82370589     0.07290
N1069       N  0.67257746  0.76613135  0.79784197    -0.27100
N1070       N  0.66288114  0.76567116  0.80666508    -0.34950
C1071       C  0.66549949  0.75608402  0.81553687     0.01240
C1072       C  0.67740069  0.75027704  0.81202994     0.07270
C1073       C  0.68164555  0.75683228  0.80078722    -0.05830
H1074       H  0.65918558  0.75354747  0.82385284     0.07940
H1075       H  0.69067451  0.75509983  0.79521905     0.09140
Cu1076     Cu  0.64660252  0.77790983  0.80623087     0.44170
Cu1077     Cu  0.67335488  0.77951675  0.78256771     0.41990
Cu1078     Cu  0.64652681  0.80317812  0.78084854     0.42440
N1079       N  0.63123401  0.79095943  0.80326301    -0.34480
N1080       N  0.63119460  0.80020796  0.79397976    -0.28740
C1081       C  0.61972425  0.80695260  0.79457575    -0.04840
C1082       C  0.61211100  0.80167827  0.80478272     0.07380
C1083       C  0.61979842  0.79152561  0.81005516     0.01180
H1084       H  0.61724935  0.81505969  0.78798721     0.08830
H1085       H  0.61739752  0.78495723  0.81819622     0.07910
N1086       N  0.66282154  0.80354804  0.76858327    -0.35930
N1087       N  0.67252357  0.79471757  0.76909829    -0.28110
C1088       C  0.68158784  0.79759353  0.75978726    -0.03350
C1089       C  0.67734922  0.80880144  0.75315637     0.05260
C1090       C  0.66544491  0.81236024  0.75893915     0.03350
H1091       H  0.69061687  0.79200315  0.75810064     0.08460
H1092       H  0.65913468  0.82067278  0.75634588     0.07290
N1093       N  0.69828928  0.72355540  0.82368312    -0.27100
N1094       N  0.68947448  0.72407950  0.83338274    -0.34950
C1095       C  0.68063755  0.73369994  0.83074451     0.01240
C1096       C  0.68416285  0.73945677  0.81882759     0.07270
C1097       C  0.69537680  0.73283938  0.81459563    -0.05830
H1098       H  0.67233091  0.73629013  0.83705174     0.07940
H1099       H  0.70094574  0.73451620  0.80555954     0.09140
Cu1100     Cu  0.68988913  0.71186140  0.84968043     0.44170
Cu1101     Cu  0.71350536  0.71010629  0.82291258     0.41990
Cu1102     Cu  0.71522831  0.68647555  0.84972264     0.43880
N1103       N  0.69286913  0.69880826  0.86504965    -0.34480
N1104       N  0.70212741  0.68952664  0.86507833    -0.28740
C1105       C  0.70153681  0.68280156  0.87655647    -0.04840
C1106       C  0.69136259  0.68812160  0.88418691     0.07380
C1107       C  0.68610206  0.69828108  0.87649961     0.01180
H1108       H  0.70810572  0.67467477  0.87902642     0.08830
H1109       H  0.67798539  0.70488100  0.87891054     0.07910
N1110       N  0.72745754  0.68604045  0.83339151    -0.35930
N1111       N  0.72693269  0.69486905  0.82369472    -0.28110
C1112       C  0.73620112  0.69196423  0.81459612    -0.03350
C1113       C  0.74281991  0.68073739  0.81880271     0.05260
C1114       C  0.73707082  0.67719751  0.83072770     0.03350
H1115       H  0.73786584  0.69754882  0.80556403     0.08460
H1116       H  0.73966597  0.66887602  0.83702245     0.07290
N1117       N  0.88078512  0.76587336  0.52589493    -0.27100
N1118       N  0.86984016  0.77314410  0.52514726    -0.34950
C1119       C  0.86666363  0.77506452  0.51235868     0.01240
C1120       C  0.87598455  0.76876763  0.50450062     0.07270
C1121       C  0.88483648  0.76299707  0.51340077    -0.05830
H1122       H  0.85814482  0.78073331  0.50905698     0.07940
H1123       H  0.89355819  0.75719593  0.51098585     0.09140
Cu1124     Cu  0.85913106  0.78059810  0.54102957     0.44170
Cu1125     Cu  0.88938507  0.76034088  0.54412209     0.41990
Cu1126     Cu  0.86955825  0.77027018  0.57305138     0.43880
N1127       N  0.84948300  0.78685988  0.55804142    -0.34480
N1128       N  0.85329143  0.78287801  0.56994518    -0.28740
C1129       C  0.84511138  0.78822953  0.57904421    -0.04840
C1130       C  0.83562004  0.79597645  0.57257840     0.07380
C1131       C  0.83879371  0.79487555  0.55922140     0.01180
H1132       H  0.84606818  0.78657695  0.58961602     0.08830
H1133       H  0.83354633  0.79928468  0.55094075     0.07910
N1134       N  0.88692479  0.75884672  0.57417806    -0.35930
N1135       N  0.89451650  0.75579277  0.56386829    -0.28110
C1136       C  0.90529720  0.74909308  0.56828790    -0.03350
C1137       C  0.90431859  0.74766534  0.58196841     0.05260
C1138       C  0.89251688  0.75391523  0.58530649     0.03350
H1139       H  0.91311341  0.74526948  0.56197978     0.08460
H1140       H  0.88839528  0.75500239  0.59517069     0.07290
N1141       N  0.76950499  0.87706835  0.52628384    -0.27100
N1142       N  0.77678783  0.86613292  0.52557406    -0.34950
C1143       C  0.77871070  0.86290515  0.51281068     0.01240
C1144       C  0.77240405  0.87218285  0.50491645     0.07270
C1145       C  0.76661984  0.88106780  0.51376960    -0.05830
H1146       H  0.78439575  0.85438433  0.50955538     0.07940
H1147       H  0.76081138  0.88977538  0.51130916     0.09140
Cu1148     Cu  0.78429365  0.85549919  0.54143114     0.44170
Cu1149     Cu  0.76401339  0.88568540  0.54451126     0.41990
Cu1150     Cu  0.77418466  0.86586200  0.57345012     0.43880
N1151       N  0.79070828  0.84585294  0.55833865    -0.34480
N1152       N  0.78682716  0.84964036  0.57027256    -0.28740
C1153       C  0.79225544  0.84143801  0.57931154    -0.04840
C1154       C  0.79993235  0.83195288  0.57275869     0.07380
C1155       C  0.79872084  0.83515660  0.55942449     0.01180
H1156       H  0.79067655  0.84235752  0.58989545     0.08830
H1157       H  0.80302586  0.82991169  0.55109664     0.07910
N1158       N  0.76269616  0.88318286  0.57459045    -0.35930
N1159       N  0.75956801  0.89077290  0.56429122    -0.28110
C1160       C  0.75286470  0.90153294  0.56874095    -0.03350
C1161       C  0.75150941  0.90053914  0.58242659     0.05260
C1162       C  0.75780385  0.88875218  0.58573889     0.03350
H1163       H  0.74898943  0.90934586  0.56245026     0.08460
H1164       H  0.75895523  0.88462928  0.59560004     0.07290
C1165       C  0.82420109  0.80310720  0.57876909     0.03320
C1166       C  0.81754729  0.81373714  0.57238926    -0.12830
C1167       C  0.80701424  0.82045382  0.57884650     0.00820
C1168       C  0.80306024  0.81616978  0.59148970    -0.11350
C1169       C  0.80941546  0.80556688  0.59786446     0.03320
C1170       C  0.81994328  0.79913698  0.59143045    -0.10770
H1171       H  0.82076661  0.81698075  0.56265698     0.08910
H1172       H  0.79482929  0.82104482  0.59631112     0.06440
H1173       H  0.82476924  0.79084459  0.59621537     0.06290
N1174       N  0.72644172  0.96593950  0.61507023    -0.27100
N1175       N  0.71917171  0.96661063  0.62600546    -0.34950
C1176       C  0.71720777  0.97936719  0.62926209     0.01240
C1177       C  0.72347227  0.98730394  0.62000598     0.07270
C1178       C  0.72927532  0.97847942  0.61110070    -0.05830
H1179       H  0.71152916  0.98258832  0.63779403     0.07940
H1180       H  0.73506955  0.98097736  0.60240504     0.09140
Cu1181     Cu  0.71175228  0.95071869  0.63662372     0.44170
Cu1182     Cu  0.73200252  0.94771702  0.60643001     0.41990
Cu1183     Cu  0.72201303  0.91874662  0.62627068     0.43880
N1184       N  0.70545664  0.93377862  0.64626863    -0.34480
N1185       N  0.70939940  0.92185878  0.64248013    -0.28740
C1186       C  0.70404218  0.91278440  0.65067630    -0.04840
C1187       C  0.69634721  0.91930264  0.66015779     0.07380
C1188       C  0.69747123  0.93265074  0.65696347     0.01180
H1189       H  0.70567806  0.90220334  0.64975143     0.08830
H1190       H  0.69312264  0.94095980  0.66220867     0.07910
N1191       N  0.73345864  0.91762399  0.60896520    -0.35930
N1192       N  0.73652972  0.92792321  0.60135601    -0.28110
C1193       C  0.74322933  0.92345961  0.59060528    -0.03350
C1194       C  0.74463873  0.90976940  0.59163445     0.05260
C1195       C  0.73837862  0.90646933  0.60342536     0.03350
H1196       H  0.74706368  0.92974253  0.58277395     0.08460
H1197       H  0.73726645  0.89661141  0.60757171     0.07290
N1198       N  0.61555411  0.96592845  0.72625835    -0.27100
N1199       N  0.62648783  0.96668738  0.71899018    -0.34950
C1200       C  0.62966289  0.97947765  0.71710011     0.01240
C1201       C  0.62034838  0.98732007  0.72341703     0.07270
C1202       C  0.61150304  0.97841841  0.72916761    -0.05830
H1203       H  0.63817379  0.98278721  0.71143849     0.07940
H1204       H  0.60278876  0.98082702  0.73497581     0.09140
Cu1205     Cu  0.63718451  0.95084345  0.71149571     0.44170
Cu1206     Cu  0.60698096  0.94770744  0.73174013     0.41990
Cu1207     Cu  0.62687540  0.91882234  0.72177293     0.43880
N1208       N  0.64683516  0.93387567  0.70518426    -0.34480
N1209       N  0.64305765  0.92195745  0.70914492    -0.28740
C1210       C  0.65123276  0.91287091  0.70377139    -0.04840
C1211       C  0.66069313  0.91936974  0.69604019     0.07380
C1212       C  0.65750761  0.93272609  0.69716308     0.01180
H1213       H  0.65030010  0.90229126  0.70541133     0.08830
H1214       H  0.66273975  0.94102427  0.69277871     0.07910
N1215       N  0.60956270  0.91766459  0.73318796    -0.35930
N1216       N  0.60193609  0.92795548  0.73624358    -0.28110
C1217       C  0.59117659  0.92350424  0.74292555    -0.03350
C1218       C  0.59221709  0.90982564  0.74433521     0.05260
C1219       C  0.60402093  0.90651321  0.73810100     0.03350
H1220       H  0.58333713  0.92978911  0.74674798     0.08460
H1221       H  0.60817404  0.89665516  0.73700381     0.07290
C1222       C  0.68930231  0.91317884  0.67163218     0.03320
C1223       C  0.69330297  0.90053902  0.67591689    -0.12830
C1224       C  0.68696280  0.89415221  0.68650910     0.00820
C1225       C  0.67641955  0.90056550  0.69292021    -0.11350
C1226       C  0.67212097  0.91321099  0.68893537     0.03320
C1227       C  0.67874567  0.91960909  0.67832285    -0.10770
H1228       H  0.70155202  0.89573340  0.67105467     0.08910
H1229       H  0.67161015  0.89577766  0.70120883     0.06440
H1230       H  0.67548595  0.92933420  0.67507327     0.06290
N1231       N  0.52691271  0.87714226  0.76921728    -0.27100
N1232       N  0.52622696  0.86621992  0.77651561    -0.34950
C1233       C  0.51346747  0.86295025  0.77841513     0.01240
C1234       C  0.50555593  0.87218875  0.77207498     0.07270
C1235       C  0.51438848  0.88109307  0.76629700    -0.05830
H1236       H  0.51022839  0.85442725  0.78410368     0.07940
H1237       H  0.51190885  0.88977770  0.76046514     0.09140
Cu1238     Cu  0.54210100  0.85565417  0.78406017     0.44170
Cu1239     Cu  0.54510757  0.88580588  0.76373428     0.41990
Cu1240     Cu  0.57406994  0.86605742  0.77389924     0.43880
N1241       N  0.55904709  0.84608995  0.79046965    -0.34480
N1242       N  0.57096543  0.84990759  0.78656263    -0.28740
C1243       C  0.58005426  0.84176250  0.79198135    -0.04840
C1244       C  0.57354580  0.83227944  0.79967661     0.07380
C1245       C  0.56018928  0.83541920  0.79849435     0.01180
H1246       H  0.59063625  0.84271823  0.79037781     0.08830
H1247       H  0.55188720  0.83014779  0.80282137     0.07910
N1248       N  0.57517969  0.88331467  0.76240760    -0.35930
N1249       N  0.56487339  0.89089633  0.75927560    -0.28110
C1250       C  0.56932089  0.90163814  0.75255491    -0.03350
C1251       C  0.58300927  0.90062521  0.75120152     0.05260
C1252       C  0.58633148  0.88886145  0.75750965     0.03350
H1253       H  0.56302919  0.90944680  0.74866952     0.08460
H1254       H  0.59619701  0.88473919  0.75866948     0.07290
N1255       N  0.52689585  0.76643466  0.88053040    -0.27100
N1256       N  0.52616361  0.77366791  0.86956863    -0.34950
C1257       C  0.51338287  0.77552857  0.86632899     0.01240
C1258       C  0.50551745  0.76922816  0.87562808     0.07270
C1259       C  0.51439568  0.76351815  0.88453420    -0.05830
H1260       H  0.51009543  0.78115605  0.85778097     0.07940
H1261       H  0.51196418  0.75773062  0.89325612     0.09140
Cu1262     Cu  0.54202657  0.78114205  0.85890591     0.44170
Cu1263     Cu  0.54509870  0.76100334  0.88919593     0.41990
Cu1264     Cu  0.57401501  0.77093287  0.86933870     0.43880
N1265       N  0.55900294  0.78741432  0.84926702    -0.34480
N1266       N  0.57091685  0.78347175  0.85308908    -0.28740
C1267       C  0.58001540  0.78880647  0.84490959    -0.04840
C1268       C  0.57352570  0.79649588  0.83540300     0.07380
C1269       C  0.56016512  0.79538799  0.83856109     0.01180
H1270       H  0.59059491  0.78717358  0.84587324     0.08830
H1271       H  0.55187241  0.79975249  0.83329182     0.07910
N1272       N  0.57514679  0.75959501  0.88669195    -0.35930
N1273       N  0.56485150  0.75654285  0.89430329    -0.28110
C1274       C  0.56930329  0.74988410  0.90508312    -0.03350
C1275       C  0.58298560  0.74849066  0.90406745     0.05260
C1276       C  0.58629942  0.75470994  0.89226283     0.03350
H1277       H  0.56301705  0.74606017  0.91291498     0.08460
H1278       H  0.59615764  0.75580557  0.88812014     0.07290
C1279       C  0.57968992  0.80357304  0.82397276     0.03320
C1280       C  0.59234448  0.79959461  0.81970261    -0.12830
C1281       C  0.59873916  0.80599153  0.80914080     0.00820
C1282       C  0.59233014  0.81655910  0.80276818    -0.11350
C1283       C  0.57968966  0.82083444  0.80675162     0.03320
C1284       C  0.57327445  0.81416211  0.81731617    -0.10770
H1285       H  0.59714954  0.79132390  0.82454528     0.08910
H1286       H  0.59711787  0.82140971  0.79450558     0.06440
H1287       H  0.56354598  0.81741036  0.82055667     0.06290
N1288       N  0.61555604  0.72348310  0.96933991    -0.27100
N1289       N  0.62651279  0.71623295  0.97007451    -0.34950
C1290       C  0.62971301  0.71431364  0.98284864     0.01240
C1291       C  0.62039188  0.72059164  0.99070510     0.07270
C1292       C  0.61151419  0.72635107  0.98183234    -0.05830
H1293       H  0.63824674  0.70865945  0.98613624     0.07940
H1294       H  0.60278639  0.73213755  0.98426130     0.09140
Cu1295     Cu  0.63722256  0.70879985  0.95423404     0.44170
Cu1296     Cu  0.60694553  0.72900191  0.95115112     0.41990
Cu1297     Cu  0.62689963  0.71912991  0.92228334     0.43880
N1298       N  0.64690786  0.70255130  0.93728504    -0.34480
N1299       N  0.64312503  0.70653649  0.92537918    -0.28740
C1300       C  0.65131384  0.70119404  0.91629278    -0.04840
C1301       C  0.66078682  0.69345485  0.92278214     0.07380
C1302       C  0.65759659  0.69454394  0.93613075     0.01180
H1303       H  0.65037403  0.70285047  0.90572014     0.08830
H1304       H  0.66282786  0.69013572  0.94442181     0.07910
N1305       N  0.60955444  0.73050445  0.92113611    -0.35930
N1306       N  0.60190926  0.73353372  0.93141137    -0.28110
C1307       C  0.59113832  0.74020813  0.92695000    -0.03350
C1308       C  0.59219354  0.74163601  0.91328228     0.05260
C1309       C  0.60401322  0.73542161  0.90998711     0.03350
H1310       H  0.58328057  0.74400988  0.93322002     0.08460
H1311       H  0.60818050  0.73434141  0.90014132     0.07290
N1312       N  0.72655924  0.61242911  0.96941308    -0.27100
N1313       N  0.71929220  0.62337706  0.97010524    -0.34950
C1314       C  0.71735063  0.62661438  0.98286340     0.01240
C1315       C  0.72362858  0.61733049  0.99077230     0.07270
C1316       C  0.72941395  0.60843204  0.98193462    -0.05830
H1317       H  0.71167783  0.63514921  0.98610447     0.07940
H1318       H  0.73520865  0.59971997  0.98441051     0.09140
Cu1319     Cu  0.71184868  0.63403069  0.95423657     0.44170
Cu1320     Cu  0.73209632  0.60378698  0.95120465     0.41990
Cu1321     Cu  0.72209223  0.62362886  0.92227766     0.43880
N1322       N  0.70555174  0.64366818  0.93728568    -0.34480
N1323       N  0.70948808  0.63985520  0.92537912    -0.28740
C1324       C  0.70412984  0.64804355  0.91629270    -0.04840
C1325       C  0.69644169  0.65754871  0.92278607     0.07380
C1326       C  0.69756841  0.65437567  0.93613476     0.01180
H1327       H  0.70575978  0.64709450  0.90571926     0.08830
H1328       H  0.69322089  0.65964146  0.94442765     0.07910
N1329       N  0.73352929  0.60630880  0.92114106    -0.35930
N1330       N  0.73661006  0.59869454  0.93143439    -0.28110
C1331       C  0.74330169  0.58793027  0.92697542    -0.03350
C1332       C  0.74469344  0.58895637  0.91329237     0.05260
C1333       C  0.73843283  0.60075906  0.90999203     0.03350
H1334       H  0.74714006  0.58009125  0.93325597     0.08460
H1335       H  0.73730826  0.60490654  0.90013805     0.07290
C1336       C  0.67220584  0.68633402  0.91662674     0.03320
C1337       C  0.67647976  0.69028101  0.90396991    -0.12830
C1338       C  0.68701830  0.68384152  0.89757202     0.00820
C1339       C  0.69337355  0.67326345  0.90398714    -0.11350
C1340       C  0.68939182  0.66901654  0.91663506     0.03320
C1341       C  0.67884346  0.67573198  0.92304650    -0.10770
H1342       H  0.67165501  0.69855884  0.89916088     0.08910
H1343       H  0.70161792  0.66838078  0.89919506     0.06440
H1344       H  0.67559944  0.67250709  0.93277676     0.06290
N1345       N  0.96980104  0.72228990  0.61432485    -0.27100
N1346       N  0.97057107  0.71503186  0.62527252    -0.34950
C1347       C  0.98337787  0.71305732  0.62838586     0.01240
C1348       C  0.99123084  0.71930342  0.61902412     0.07270
C1349       C  0.98230005  0.72510027  0.61021272    -0.05830
H1350       H  0.98669827  0.70739497  0.63689832     0.07940
H1351       H  0.98469989  0.73088537  0.60148057     0.09140
Cu1352     Cu  0.95468325  0.70769165  0.63609073     0.44170
Cu1353     Cu  0.95152650  0.72791846  0.60581144     0.41990
Cu1354     Cu  0.92265881  0.71819541  0.62582450     0.43880
N1355       N  0.93765577  0.70158214  0.64585329    -0.34480
N1356       N  0.92575588  0.70563425  0.64209058    -0.28740
C1357       C  0.91664523  0.70038026  0.65031862    -0.04840
C1358       C  0.92309612  0.69262109  0.65980066     0.07380
C1359       C  0.93645858  0.69361279  0.65656896     0.01180
H1360       H  0.90607684  0.70210363  0.64939477     0.08830
H1361       H  0.94473264  0.68915346  0.66178790     0.07910
N1362       N  0.92146878  0.72957892  0.60847379    -0.35930
N1363       N  0.93173860  0.73257143  0.60080176    -0.28110
C1364       C  0.92724867  0.73927378  0.59005347    -0.03350
C1365       C  0.91357089  0.74076360  0.59114846     0.05260
C1366       C  0.91030782  0.73454612  0.60297555     0.03350
H1367       H  0.93350650  0.74305359  0.58217777     0.08460
H1368       H  0.90046998  0.73350095  0.60717907     0.07290
N1369       N  0.96955205  0.61158051  0.72573325    -0.27100
N1370       N  0.97025225  0.62248261  0.71840218    -0.34950
C1371       C  0.98302187  0.62566904  0.71639788     0.01240
C1372       C  0.99093604  0.61640267  0.72269993     0.07270
C1373       C  0.98208261  0.60756519  0.72856664    -0.05830
H1374       H  0.98626894  0.63416310  0.71067079     0.07940
H1375       H  0.98455537  0.59888342  0.73440584     0.09140
Cu1376     Cu  0.95437272  0.63315566  0.71096583     0.44170
Cu1377     Cu  0.95130583  0.60303909  0.73138198     0.41990
Cu1378     Cu  0.92238659  0.62295670  0.72134788     0.43880
N1379       N  0.93743486  0.64285851  0.70467528    -0.34480
N1380       N  0.92551549  0.63912105  0.70866095    -0.28740
C1381       C  0.91644761  0.64733328  0.70329511    -0.04840
C1382       C  0.92296502  0.65677750  0.69554786     0.07380
C1383       C  0.93630959  0.65353871  0.69665297     0.01180
H1384       H  0.90586997  0.64644185  0.70496010     0.08830
H1385       H  0.94461975  0.65874286  0.69226073     0.07910
N1386       N  0.92122473  0.60570209  0.73289028    -0.35930
N1387       N  0.93150272  0.59806237  0.73598330    -0.28110
C1388       C  0.92701443  0.58735895  0.74275229    -0.03350
C1389       C  0.91333163  0.58845263  0.74418419     0.05260
C1390       C  0.91006173  0.60023090  0.73786358     0.03350
H1391       H  0.93327649  0.57951547  0.74661540     0.08460
H1392       H  0.90021702  0.60441373  0.73674593     0.07290
C1393       C  0.91689316  0.68554058  0.67123772     0.03320
C1394       C  0.90422848  0.68952919  0.67550128    -0.12830
C1395       C  0.89780688  0.68313441  0.68605921     0.00820
C1396       C  0.90419949  0.67254851  0.69242914    -0.11350
C1397       C  0.91684271  0.66825111  0.68846191     0.03320
C1398       C  0.92327924  0.67492846  0.67790276    -0.10770
H1399       H  0.89943259  0.69780592  0.67065846     0.08910
H1400       H  0.89939224  0.66769872  0.70068040     0.06440
H1401       H  0.93300680  0.67166823  0.67467395     0.06290
N1402       N  0.76951970  0.52352746  0.88065640    -0.27100
N1403       N  0.77677922  0.52277441  0.86971836    -0.34950
C1404       C  0.77867761  0.50998322  0.86653567     0.01240
C1405       C  0.77237855  0.50212119  0.87584550     0.07270
C1406       C  0.76662742  0.51102532  0.88469940    -0.05830
H1407       H  0.78433563  0.50668355  0.85802027     0.07940
H1408       H  0.76083019  0.50860694  0.89341563     0.09140
Cu1409     Cu  0.78426100  0.53863965  0.85902618     0.44170
Cu1410     Cu  0.76404652  0.54178828  0.88923374     0.41990
Cu1411     Cu  0.77409146  0.57070776  0.86936212     0.43880
N1412       N  0.79060289  0.55559452  0.84935187    -0.34480
N1413       N  0.78668552  0.56752967  0.85312883    -0.28740
C1414       C  0.79206724  0.57658839  0.84492393    -0.04840
C1415       C  0.79976073  0.57005555  0.83544822     0.07380
C1416       C  0.79860212  0.55670733  0.83865788     0.01180
H1417       H  0.79045801  0.58717429  0.84584297     0.08830
H1418       H  0.80294566  0.54838846  0.83342422     0.07910
N1419       N  0.76267649  0.57187380  0.88670269    -0.35930
N1420       N  0.75958957  0.56157884  0.89431088    -0.28110
C1421       C  0.75291941  0.56604299  0.90507699    -0.03350
C1422       C  0.75154519  0.57973367  0.90406717     0.05260
C1423       C  0.75779316  0.58303437  0.89226620     0.03350
H1424       H  0.74907861  0.55975887  0.91290433     0.08460
H1425       H  0.75891671  0.59289430  0.88812766     0.07290
N1426       N  0.88048828  0.52328182  0.76936730    -0.27100
N1427       N  0.86956260  0.52260392  0.77665487    -0.34950
C1428       C  0.86631866  0.50984091  0.77860821     0.01240
C1429       C  0.87557685  0.50191844  0.77231594     0.07270
C1430       C  0.88446512  0.51075199  0.76651011    -0.05830
H1431       H  0.85780006  0.50660482  0.78430083     0.07940
H1432       H  0.89315845  0.50826831  0.76070222     0.09140
Cu1433     Cu  0.85897138  0.53851608  0.78411093     0.44170
Cu1434     Cu  0.88912986  0.54148211  0.76381585     0.41990
Cu1435     Cu  0.86939845  0.57051435  0.77383744     0.43880
N1436       N  0.84938809  0.55549375  0.79044842    -0.34480
N1437       N  0.85319119  0.56741008  0.78650382    -0.28740
C1438       C  0.84502482  0.57649514  0.79190363    -0.04840
C1439       C  0.83555152  0.56999261  0.79963116     0.07380
C1440       C  0.83872025  0.55663925  0.79847657     0.01180
H1441       H  0.84596409  0.58707630  0.79027790     0.08830
H1442       H  0.83347278  0.54833775  0.80283639     0.07910
N1443       N  0.88671422  0.57157177  0.76234637    -0.35930
N1444       N  0.89427116  0.56123153  0.75927240    -0.28110
C1445       C  0.90503572  0.56561788  0.75254430    -0.03350
C1446       C  0.90408199  0.57930648  0.75111500     0.05260
C1447       C  0.89231144  0.58268654  0.75739363     0.03350
H1448       H  0.91282244  0.55928097  0.74870030     0.08460
H1449       H  0.88821826  0.59256965  0.75848931     0.07290
C1450       C  0.82410055  0.57613959  0.80672343     0.03320
C1451       C  0.81981384  0.58877858  0.80272122    -0.12830
C1452       C  0.80925271  0.59519904  0.80908882     0.00820
C1453       C  0.80287437  0.58882307  0.81967289    -0.11350
C1454       C  0.80685076  0.57617558  0.82397986     0.03320
C1455       C  0.81743241  0.56974093  0.81731802    -0.10770
H1456       H  0.82465030  0.59355761  0.79444471     0.08910
H1457       H  0.79461356  0.59364134  0.82450625     0.06440
H1458       H  0.82067644  0.56001341  0.82057588     0.06290
N1459       N  0.32421331  0.79369739  0.76831714    -0.27100
N1460       N  0.33391595  0.80251870  0.76784211    -0.34950
C1461       C  0.33133912  0.81133497  0.75818817     0.01240
C1462       C  0.31946110  0.80779738  0.75234770     0.07270
C1463       C  0.31518827  0.79658931  0.75895856    -0.05830
H1464       H  0.33766418  0.81963837  0.75562970     0.07940
H1465       H  0.30616339  0.79101356  0.75722591     0.09140
Cu1466     Cu  0.35015363  0.80216369  0.78016574     0.44170
Cu1467     Cu  0.32336598  0.77850327  0.78182003     0.41990
Cu1468     Cu  0.35011559  0.77697919  0.80559546     0.43880
N1469       N  0.36546254  0.79930218  0.79333364    -0.34480
N1470       N  0.36544684  0.79008186  0.80264391    -0.28740
C1471       C  0.37686176  0.79072969  0.80947101    -0.04840
C1472       C  0.38450453  0.80090751  0.80418951     0.07380
C1473       C  0.37688931  0.80610837  0.79394299     0.01180
H1474       H  0.37927620  0.78420141  0.81764394     0.08830
H1475       H  0.37933157  0.81421147  0.78734212     0.07910
N1476       N  0.33384934  0.76471450  0.80599538    -0.35930
N1477       N  0.32416940  0.76514440  0.79714147    -0.28110
C1478       C  0.31511738  0.75583682  0.80008214    -0.03350
C1479       C  0.31934879  0.74930710  0.81135251     0.05260
C1480       C  0.33123007  0.75514008  0.81488061     0.03350
H1481       H  0.30610330  0.75408222  0.79449217     0.08460
H1482       H  0.33752968  0.75262958  0.82322297     0.07290
N1483       N  0.19869247  0.66817129  0.76832740    -0.27100
N1484       N  0.18987184  0.65846813  0.76785303    -0.34950
C1485       C  0.18105526  0.66104341  0.75819917     0.01240
C1486       C  0.18459205  0.67292112  0.75235810     0.07270
C1487       C  0.19579983  0.67719541  0.75896839    -0.05830
H1488       H  0.17275238  0.65471741  0.75564112     0.07940
H1489       H  0.20137495  0.68622041  0.75723497     0.09140
Cu1490     Cu  0.19022890  0.64223223  0.78017677     0.44170
Cu1491     Cu  0.21388667  0.66902008  0.78182949     0.41990
Cu1492     Cu  0.21541421  0.64227275  0.80560614     0.43880
N1493       N  0.19309325  0.62692487  0.79334379    -0.34480
N1494       N  0.20231355  0.62694116  0.80265396    -0.28740
C1495       C  0.20166651  0.61552642  0.80948100    -0.04840
C1496       C  0.19148917  0.60788351  0.80419934     0.07380
C1497       C  0.18628782  0.61549807  0.79395293     0.01180
H1498       H  0.20819458  0.61311257  0.81765441     0.08830
H1499       H  0.17818449  0.61305580  0.78735218     0.07910
N1500       N  0.22767714  0.65853928  0.80600454    -0.35930
N1501       N  0.22724610  0.66821856  0.79715005    -0.28110
C1502       C  0.23655341  0.67727112  0.80008936    -0.03350
C1503       C  0.24308407  0.67304052  0.81135944     0.05260
C1504       C  0.23725201  0.66115931  0.81488885     0.03350
H1505       H  0.23830732  0.68628472  0.79449862     0.08460
H1506       H  0.23976354  0.65486019  0.82323121     0.07290
N1507       N  0.29845403  0.72259889  0.82299695    -0.27100
N1508       N  0.30723228  0.72315218  0.83273550    -0.34950
C1509       C  0.31607040  0.73276689  0.83010552     0.01240
C1510       C  0.31258429  0.73849148  0.81815434     0.07270
C1511       C  0.30139181  0.73185762  0.81389558    -0.05830
H1512       H  0.32434837  0.73538055  0.83644427     0.07940
H1513       H  0.29585039  0.73351070  0.80483247     0.09140
Cu1514     Cu  0.30675165  0.71098421  0.84908125     0.44170
Cu1515     Cu  0.28323720  0.70915354  0.82219628     0.41990
Cu1516     Cu  0.28140994  0.68563939  0.84908283     0.43880
N1517       N  0.30369196  0.69796639  0.86447195    -0.34480
N1518       N  0.29442801  0.68870118  0.86447235    -0.28740
C1519       C  0.29496056  0.68198352  0.87595493    -0.04840
C1520       C  0.30510543  0.68728967  0.88362391     0.07380
C1521       C  0.31041002  0.69743504  0.87595437     0.01180
H1522       H  0.28838031  0.67386557  0.87839441     0.08830
H1523       H  0.31852711  0.70401648  0.87839344     0.07910
N1524       N  0.26924080  0.68515819  0.83273851    -0.35930
N1525       N  0.26979276  0.69393611  0.82299957    -0.28110
C1526       C  0.26053309  0.69099782  0.81389947    -0.03350
C1527       C  0.25390009  0.67980541  0.81815958     0.05260
C1528       C  0.25962603  0.67631977  0.83011014     0.03350
H1529       H  0.25887879  0.69653884  0.80483637     0.08460
H1530       H  0.25701330  0.66804208  0.83644952     0.07290
N1531       N  0.19905366  0.76464859  0.67069739    -0.27100
N1532       N  0.19026608  0.76411449  0.66096445    -0.34950
C1533       C  0.18140492  0.75452110  0.66360487     0.01240
C1534       C  0.18488158  0.74878708  0.67555544     0.07270
C1535       C  0.19609678  0.75539588  0.67980269    -0.05830
H1536       H  0.17311081  0.75193279  0.65727697     0.07940
H1537       H  0.20163459  0.75373606  0.68886695     0.09140
Cu1538     Cu  0.19074187  0.77629705  0.64461402     0.44170
Cu1539     Cu  0.21429500  0.77808768  0.67149764     0.41990
Cu1540     Cu  0.21607452  0.80163621  0.64461037     0.43880
N1541       N  0.19375992  0.78934531  0.62922332    -0.34480
N1542       N  0.20302390  0.79861149  0.62922201    -0.28740
C1543       C  0.20246402  0.80535306  0.61775113    -0.04840
C1544       C  0.19230144  0.80006439  0.61008843     0.07380
C1545       C  0.18701633  0.78990174  0.61775337     0.01180
H1546       H  0.20903959  0.81347518  0.61531154     0.08830
H1547       H  0.17889524  0.78332405  0.61531585     0.07910
N1548       N  0.22826071  0.80211888  0.66095889    -0.35930
N1549       N  0.22773004  0.79333240  0.67069304    -0.28110
C1550       C  0.23698369  0.79629202  0.67979638    -0.03350
C1551       C  0.24358994  0.80750794  0.67554696     0.05260
C1552       C  0.23785310  0.81098225  0.66359679     0.03350
H1553       H  0.23864616  0.79075520  0.68886072     0.08460
H1554       H  0.24043913  0.81927587  0.65726745     0.07290
N1555       N  0.29868527  0.81931659  0.72545804    -0.27100
N1556       N  0.30747526  0.82904646  0.72599161    -0.34950
C1557       C  0.31626558  0.82645649  0.73566886     0.01240
C1558       C  0.31274001  0.81454537  0.74145682     0.07270
C1559       C  0.30156988  0.81026669  0.73479353    -0.05830
H1560       H  0.32454255  0.83279460  0.73828037     0.07940
H1561       H  0.29601246  0.80122090  0.73647560     0.09140
Cu1562     Cu  0.30710694  0.84534331  0.71371084     0.44170
Cu1563     Cu  0.28352711  0.81843595  0.71192779     0.41990
Cu1564     Cu  0.28192523  0.84521657  0.68824812     0.43880
N1565       N  0.30417607  0.86068077  0.70055447    -0.34480
N1566       N  0.29495637  0.86062778  0.69124100    -0.28740
C1567       C  0.29552743  0.87207007  0.68444577    -0.04840
C1568       C  0.30565031  0.87977669  0.68974524     0.07380
C1569       C  0.31090277  0.87216228  0.69997312     0.01180
H1570       H  0.28897286  0.87446986  0.67628942     0.08830
H1571       H  0.31898122  0.87465140  0.70658772     0.07910
N1572       N  0.26971646  0.82888590  0.68776764    -0.35930
N1573       N  0.27018149  0.81918845  0.69659993    -0.28110
C1574       C  0.26092088  0.81009541  0.69363340    -0.03350
C1575       C  0.25437894  0.81431399  0.68236476     0.05260
C1576       C  0.26016112  0.82623419  0.67886710     0.03350
H1577       H  0.25920407  0.80106374  0.69920696     0.08460
H1578       H  0.25762468  0.83253892  0.67053688     0.07290
N1579       N  0.17320278  0.72219786  0.69661149    -0.27100
N1580       N  0.16350550  0.72266193  0.68777906    -0.34950
C1581       C  0.16615688  0.73221637  0.67887785     0.01240
C1582       C  0.17807677  0.73799901  0.68237511     0.07270
C1583       C  0.18229568  0.73145841  0.69364431    -0.05830
H1584       H  0.15985208  0.73475173  0.67054731     0.07940
H1585       H  0.19132749  0.73317595  0.69921767     0.09140
Cu1586     Cu  0.14717555  0.71045374  0.68825877     0.44170
Cu1587     Cu  0.17395442  0.70885300  0.71193916     0.41990
Cu1588     Cu  0.14704791  0.68527168  0.71371967     0.43880
N1589       N  0.13176430  0.69742396  0.69125043    -0.34480
N1590       N  0.13171123  0.68820397  0.70056352    -0.28740
C1591       C  0.12022954  0.68147795  0.69998240    -0.04840
C1592       C  0.11261518  0.68673132  0.68975499     0.07380
C1593       C  0.12032181  0.69685392  0.68445545     0.01180
H1594       H  0.11774051  0.67339964  0.70659699     0.08830
H1595       H  0.11792193  0.70340874  0.67629948     0.07910
N1596       N  0.16334371  0.68490400  0.72600101    -0.35930
N1597       N  0.17307300  0.69369467  0.72546807    -0.28110
C1598       C  0.18212247  0.69081090  0.73480392    -0.03350
C1599       C  0.17784410  0.67964072  0.74146689     0.05260
C1600       C  0.16593362  0.67611396  0.73567845     0.03350
H1601       H  0.19116774  0.69636916  0.73648652     0.08460
H1602       H  0.15959593  0.66783665  0.73828979     0.07290
N1603       N  0.46946493  0.76616146  0.88042104    -0.27100
N1604       N  0.47017060  0.77341889  0.86947557    -0.34950
C1605       C  0.48293931  0.77540033  0.86628825     0.01240
C1606       C  0.49083511  0.76915851  0.87560545     0.07270
C1607       C  0.48198315  0.76335229  0.88447024    -0.05830
H1608       H  0.48619580  0.78107350  0.85776376     0.07940
H1609       H  0.48444540  0.75757211  0.89319227     0.09140
Cu1610     Cu  0.45430456  0.78078704  0.85876133     0.44170
Cu1611     Cu  0.45125148  0.76057031  0.88897134     0.41990
Cu1612     Cu  0.42234372  0.77042409  0.86896086     0.43880
N1613       N  0.43737808  0.78701037  0.84902373    -0.34480
N1614       N  0.42546139  0.78302365  0.85276380    -0.28740
C1615       C  0.41639273  0.78833068  0.84452256    -0.04840
C1616       C  0.42291190  0.79604032  0.83505846     0.07380
C1617       C  0.43625360  0.79497882  0.83831030     0.01180
H1618       H  0.40581644  0.78665020  0.84540586     0.08830
H1619       H  0.44456175  0.79935803  0.83309281     0.07910
N1620       N  0.42120725  0.75900202  0.88625890    -0.35930
N1621       N  0.43148241  0.75597893  0.89392336    -0.28110
C1622       C  0.42700970  0.74926328  0.90465377    -0.03350
C1623       C  0.41334067  0.74779969  0.90354864     0.05260
C1624       C  0.41005397  0.75403945  0.89174403     0.03350
H1625       H  0.43327452  0.74545809  0.91252056     0.08460
H1626       H  0.40020972  0.75510819  0.88754989     0.07290
N1627       N  0.46948628  0.87687361  0.76909304    -0.27100
N1628       N  0.47024313  0.86594927  0.77638403    -0.34950
C1629       C  0.48303058  0.86279594  0.77834084     0.01240
C1630       C  0.49087573  0.87211588  0.77204465     0.07270
C1631       C  0.48197909  0.88094189  0.76623541    -0.05830
H1632       H  0.48633502  0.85429577  0.78403410     0.07940
H1633       H  0.48439283  0.88965447  0.76042360     0.09140
Cu1634     Cu  0.45440625  0.85523664  0.78382040     0.44170
Cu1635     Cu  0.45126064  0.88540299  0.76351427     0.41990
Cu1636     Cu  0.42239152  0.86546808  0.77338086     0.43880
N1637       N  0.43745034  0.84556124  0.79006337    -0.34480
N1638       N  0.42553571  0.84930552  0.78604681    -0.28740
C1639       C  0.41645836  0.84110770  0.79139119    -0.04840
C1640       C  0.42296341  0.83167047  0.79915880     0.07380
C1641       C  0.43630998  0.83489013  0.79809035     0.01180
H1642       H  0.40588203  0.84200747  0.78970433     0.08830
H1643       H  0.44461076  0.82968070  0.80251255     0.07910
N1644       N  0.42122895  0.88276498  0.76192616    -0.35930
N1645       N  0.43151298  0.89040615  0.75890376    -0.28110
C1646       C  0.42706255  0.90114812  0.75217720    -0.03350
C1647       C  0.41339253  0.90008207  0.75070260     0.05260
C1648       C  0.41008451  0.88828011  0.75694802     0.03350
H1649       H  0.43334369  0.90899456  0.74837044     0.08460
H1650       H  0.40023318  0.88411078  0.75800843     0.07290
C1651       C  0.41682674  0.82022575  0.80624127     0.03320
C1652       C  0.40422495  0.81587925  0.80219757    -0.12830
C1653       C  0.39783272  0.80531359  0.80858529     0.00820
C1654       C  0.40419869  0.79899786  0.81921457    -0.11350
C1655       C  0.41679944  0.80305027  0.82355356     0.03320
C1656       C  0.42320721  0.81363031  0.81688730    -0.10770
H1657       H  0.39945561  0.82067128  0.79388143     0.08910
H1658       H  0.39941092  0.79072925  0.82406109     0.06440
H1659       H  0.43289952  0.81693053  0.82018075     0.06290
N1660       N  0.38081140  0.96536423  0.72548591    -0.27100
N1661       N  0.36991324  0.96611067  0.71815011    -0.34950
C1662       C  0.36672403  0.97890461  0.71624701     0.01240
C1663       C  0.37598738  0.98676481  0.72262470     0.07270
C1664       C  0.38481877  0.97786220  0.72842370    -0.05830
H1665       H  0.35823279  0.98220849  0.71054025     0.07940
H1666       H  0.39349332  0.98027745  0.73429194     0.09140
Cu1667     Cu  0.35927441  0.95022479  0.71059673     0.44170
Cu1668     Cu  0.38940460  0.94714280  0.73103711     0.41990
Cu1669     Cu  0.36967541  0.91821925  0.72095782     0.43880
N1670       N  0.34971212  0.93319088  0.70425544    -0.34480
N1671       N  0.35353720  0.92129258  0.70824817    -0.28740
C1672       C  0.34543456  0.91215896  0.70285177    -0.04840
C1673       C  0.33596352  0.91859594  0.69506844     0.07380
C1674       C  0.33907304  0.93197340  0.69618666     0.01180
H1675       H  0.34642621  0.90158683  0.70451206     0.08830
H1676       H  0.33381171  0.94023907  0.69176102     0.07910
N1677       N  0.38691392  0.91708706  0.73249368    -0.35930
N1678       N  0.39449066  0.92739286  0.73560234    -0.28110
C1679       C  0.40521526  0.92295654  0.74236901    -0.03350
C1680       C  0.40419942  0.90927350  0.74377747     0.05260
C1681       C  0.39244869  0.90594391  0.73745160     0.03350
H1682       H  0.41301515  0.92925290  0.74624576     0.08460
H1683       H  0.38832835  0.89607976  0.73632233     0.07290
N1684       N  0.27023545  0.96505154  0.61392727    -0.27100
N1685       N  0.27748414  0.96572521  0.62488401    -0.34950
C1686       C  0.27938595  0.97849088  0.62816851     0.01240
C1687       C  0.27310270  0.98643899  0.61891395     0.07270
C1688       C  0.26735508  0.97759764  0.60997892    -0.05830
H1689       H  0.28503149  0.98171616  0.63672344     0.07940
H1690       H  0.26156301  0.98009246  0.60127427     0.09140
Cu1691     Cu  0.28493824  0.94978881  0.63549192     0.44170
Cu1692     Cu  0.26477187  0.94679224  0.60522665     0.41990
Cu1693     Cu  0.27487251  0.91777110  0.62501557     0.43880
N1694       N  0.29127130  0.93281643  0.64513993    -0.34480
N1695       N  0.28739545  0.92088756  0.64131413    -0.28740
C1696       C  0.29276150  0.91181301  0.64952318    -0.04840
C1697       C  0.30040090  0.91833514  0.65905003     0.07380
C1698       C  0.29922559  0.93168840  0.65586840     0.01180
H1699       H  0.29117823  0.90122780  0.64857200     0.08830
H1700       H  0.30352735  0.94000164  0.66114160     0.07910
N1701       N  0.26349123  0.91665639  0.60764813    -0.35930
N1702       N  0.26036914  0.92696335  0.60006057    -0.28110
C1703       C  0.25371302  0.92248498  0.58927922    -0.03350
C1704       C  0.25238624  0.90877863  0.59026589     0.05260
C1705       C  0.25865142  0.90548967  0.60206493     0.03350
H1706       H  0.24984285  0.92876717  0.58145853     0.08460
H1707       H  0.25981004  0.89562915  0.60619648     0.07290
C1708       C  0.30747269  0.91221526  0.67053397     0.03320
C1709       C  0.30357560  0.89952848  0.67478216    -0.12830
C1710       C  0.30992970  0.89317963  0.68540835     0.00820
C1711       C  0.32039714  0.89967142  0.69186626    -0.11350
C1712       C  0.32460418  0.91235478  0.68791091     0.03320
C1713       C  0.31795580  0.91871292  0.67727890    -0.10770
H1714       H  0.29539176  0.89466033  0.66987096     0.08910
H1715       H  0.32521569  0.89491297  0.70017391     0.06440
H1716       H  0.32114120  0.92846760  0.67405922     0.06290
N1717       N  0.11643832  0.76484923  0.52493276    -0.27100
N1718       N  0.12740174  0.77208255  0.52422819    -0.34950
C1719       C  0.13062255  0.77402700  0.51146343     0.01240
C1720       C  0.12131178  0.76778645  0.50356635     0.07270
C1721       C  0.11241566  0.76202026  0.51241672    -0.05830
H1722       H  0.13916286  0.77967771  0.50820888     0.07940
H1723       H  0.10368543  0.75625866  0.50995317     0.09140
Cu1724     Cu  0.13809233  0.77948187  0.54009642     0.44170
Cu1725     Cu  0.10779494  0.75932565  0.54314619     0.41990
Cu1726     Cu  0.12769192  0.76923780  0.57207763     0.43880
N1727       N  0.14777134  0.78575066  0.55704159    -0.34480
N1728       N  0.14397900  0.78180840  0.56895674    -0.28740
C1729       C  0.15218977  0.78716611  0.57802420    -0.04840
C1730       C  0.16167941  0.79486780  0.57151290     0.07380
C1731       C  0.15847488  0.79373774  0.55817080     0.01180
H1732       H  0.15125862  0.78554452  0.58860193     0.08830
H1733       H  0.16371090  0.79810040  0.54986602     0.07910
N1734       N  0.11029015  0.75787321  0.57321445    -0.35930
N1735       N  0.10267064  0.75483238  0.56291602    -0.28110
C1736       C  0.09186755  0.74819742  0.56736420    -0.03350
C1737       C  0.09286057  0.74679663  0.58105042     0.05260
C1738       C  0.10469581  0.75299366  0.58435830     0.03350
H1739       H  0.08402326  0.74440064  0.56107292     0.08460
H1740       H  0.10883641  0.75408778  0.59421684     0.07290
N1741       N  0.22749664  0.87592475  0.52492612    -0.27100
N1742       N  0.22026317  0.86496124  0.52422557    -0.34950
C1743       C  0.21831515  0.86173720  0.51146216     0.01240
C1744       C  0.22455334  0.87104576  0.50356064     0.07270
C1745       C  0.23032203  0.87994416  0.51240776    -0.05830
H1746       H  0.21266353  0.85319615  0.50821157     0.07940
H1747       H  0.23608286  0.88867367  0.50994024     0.09140
Cu1748     Cu  0.21286781  0.85427468  0.54009744     0.44170
Cu1749     Cu  0.23302387  0.88457137  0.54313983     0.41990
Cu1750     Cu  0.22311192  0.86468130  0.57207810     0.43880
N1751       N  0.20660057  0.84459798  0.55704351    -0.34480
N1752       N  0.21054187  0.84839186  0.56895845    -0.28740
C1753       C  0.20518512  0.84018020  0.57802597    -0.04840
C1754       C  0.19748551  0.83068870  0.57151462     0.07380
C1755       C  0.19861559  0.83389303  0.55817271     0.01180
H1756       H  0.20680658  0.84111150  0.58860367     0.08830
H1757       H  0.19425502  0.82865552  0.54986786     0.07910
N1758       N  0.23447818  0.88208405  0.57321113    -0.35930
N1759       N  0.23751906  0.88970114  0.56291068    -0.28110
C1760       C  0.24415476  0.90050509  0.56735688    -0.03350
C1761       C  0.24555641  0.89951551  0.58104385     0.05260
C1762       C  0.23935869  0.88768074  0.58435375     0.03350
H1763       H  0.24795174  0.90834774  0.56106379     0.08460
H1764       H  0.23826489  0.88354200  0.59421315     0.07290
C1765       C  0.17314162  0.80196133  0.57764561     0.03320
C1766       C  0.17741941  0.79799311  0.59029617    -0.12830
C1767       C  0.18797930  0.80438400  0.59670080     0.00820
C1768       C  0.19436529  0.81494709  0.59029677    -0.11350
C1769       C  0.19039586  0.81922361  0.57764647     0.03320
C1770       C  0.17981727  0.81254339  0.57122680    -0.10770
H1771       H  0.17257483  0.78973239  0.59509944     0.08910
H1772       H  0.20262345  0.81979549  0.59510037     0.06440
H1773       H  0.17657794  0.81578173  0.56149554     0.06290
N1774       N  0.02733323  0.72212904  0.61393753    -0.27100
N1775       N  0.02665631  0.71488416  0.62489657    -0.34950
C1776       C  0.01388943  0.71298742  0.62817952     0.01240
C1777       C  0.00594543  0.71927053  0.61892115     0.07270
C1778       C  0.01478932  0.72501231  0.60998597    -0.05830
H1779       H  0.01066064  0.70734591  0.63673578     0.07940
H1780       H  0.01229800  0.73080235  0.60127902     0.09140
Cu1781     Cu  0.04259027  0.70743043  0.63550909     0.44170
Cu1782     Cu  0.04559053  0.72758605  0.60523598     0.41990
Cu1783     Cu  0.07460751  0.71749699  0.62502864     0.43880
N1784       N  0.05956506  0.70110296  0.64515719    -0.34480
N1785       N  0.07149300  0.70497990  0.64132916    -0.28740
C1786       C  0.08056991  0.69961751  0.64953747    -0.04840
C1787       C  0.07405055  0.69197923  0.65906633     0.07380
C1788       C  0.06069627  0.69315114  0.65588699     0.01180
H1789       H  0.09115498  0.70120196  0.64858379     0.08830
H1790       H  0.05238464  0.68884823  0.66116209     0.07910
N1791       N  0.07572296  0.72886983  0.60765847    -0.35930
N1792       N  0.06541625  0.73198776  0.60006927    -0.28110
C1793       C  0.06989364  0.73864043  0.58928600    -0.03350
C1794       C  0.08359931  0.73996885  0.59027347     0.05260
C1795       C  0.08688929  0.73370858  0.60207436     0.03350
H1796       H  0.06361119  0.74250733  0.58146384     0.08460
H1797       H  0.09674993  0.73255291  0.60620686     0.07290
N1798       N  0.02703207  0.61157685  0.72549747    -0.27100
N1799       N  0.02628922  0.62247462  0.71816104    -0.34950
C1800       C  0.01349691  0.62566761  0.71625578     0.01240
C1801       C  0.00563377  0.61640701  0.72263273     0.07270
C1802       C  0.01453259  0.60757312  0.72843371    -0.05830
H1803       H  0.01019650  0.63415931  0.71054800     0.07940
H1804       H  0.01211387  0.59889970  0.73430200     0.09140
Cu1805     Cu  0.04217551  0.63310861  0.71060877     0.44170
Cu1806     Cu  0.04525110  0.60298098  0.73105065     0.41990
Cu1807     Cu  0.07417669  0.62270955  0.72097030     0.43880
N1808       N  0.05920690  0.64266929  0.70426669    -0.34480
N1809       N  0.07110524  0.63884465  0.70825923    -0.28740
C1810       C  0.08023855  0.64694674  0.70286214    -0.04840
C1811       C  0.07380045  0.65641687  0.69507909     0.07380
C1812       C  0.06042330  0.65330767  0.69619770     0.01180
H1813       H  0.09081095  0.64595561  0.70452237     0.08830
H1814       H  0.05215709  0.65856881  0.69177276     0.07910
N1815       N  0.07530667  0.60547363  0.73250703    -0.35930
N1816       N  0.06500103  0.59789670  0.73561601    -0.28110
C1817       C  0.06943785  0.58717297  0.74238336    -0.03350
C1818       C  0.08312078  0.58819024  0.74379155     0.05260
C1819       C  0.08645002  0.59994024  0.73746518     0.03350
H1820       H  0.06314201  0.57937289  0.74626057     0.08460
H1821       H  0.09631417  0.60406103  0.73633540     0.07290
C1822       C  0.08017401  0.68490893  0.67054823     0.03320
C1823       C  0.07367898  0.67442448  0.67729243    -0.12830
C1824       C  0.08003954  0.66777629  0.68792230     0.00820
C1825       C  0.09272254  0.67198399  0.69187657    -0.11350
C1826       C  0.09921223  0.68245251  0.68541897     0.03320
C1827       C  0.09286120  0.68880741  0.67479450    -0.10770
H1828       H  0.06392427  0.67123786  0.67407365     0.08910
H1829       H  0.09748217  0.66716497  0.70018306     0.06440
H1830       H  0.09772770  0.69699230  0.66988342     0.06290
N1831       N  0.38072523  0.72278639  0.96870593    -0.27100
N1832       N  0.36979192  0.71551503  0.96943511    -0.34950
C1833       C  0.36658419  0.71360871  0.98220219     0.01240
C1834       C  0.37587922  0.71991855  0.99005901     0.07270
C1835       C  0.38474827  0.72568348  0.98119768    -0.05830
H1836       H  0.35806876  0.70793560  0.98548192     0.07940
H1837       H  0.39345889  0.73148691  0.98363260     0.09140
Cu1838     Cu  0.35913824  0.70801760  0.95360958     0.44170
Cu1839     Cu  0.38932640  0.72827670  0.95052798     0.41990
Cu1840     Cu  0.36949313  0.71824604  0.92163108     0.43880
N1841       N  0.34951715  0.70167325  0.93668047    -0.34480
N1842       N  0.35331134  0.70560563  0.92476484    -0.28740
C1843       C  0.34514075  0.70021205  0.91569314    -0.04840
C1844       C  0.33566749  0.69250426  0.92220586     0.07380
C1845       C  0.33884047  0.69365713  0.93555069     0.01180
H1846       H  0.34608060  0.70183033  0.90511569     0.08830
H1847       H  0.33359462  0.68930445  0.94385432     0.07910
N1848       N  0.38678736  0.72970508  0.92050419    -0.35930
N1849       N  0.39438326  0.73278368  0.93080487    -0.28110
C1850       C  0.40513307  0.73949842  0.92638434    -0.03350
C1851       C  0.40412239  0.74090592  0.91271306     0.05260
C1852       C  0.39234406  0.73463587  0.90937213     0.03350
H1853       H  0.41294591  0.74334289  0.93268598     0.08460
H1854       H  0.38821825  0.73352867  0.89950877     0.07290
N1855       N  0.26960896  0.61166859  0.96870412    -0.27100
N1856       N  0.27687975  0.62260202  0.96943545    -0.34950
C1857       C  0.27878374  0.62580789  0.98220320     0.01240
C1858       C  0.27247278  0.61651135  0.99005756     0.07270
C1859       C  0.26670975  0.60764349  0.98119455    -0.05830
H1860       H  0.28445588  0.63432295  0.98548500     0.07940
H1861       H  0.26090627  0.59893236  0.98362729     0.09140
Cu1862     Cu  0.28437913  0.63325831  0.95361205     0.44170
Cu1863     Cu  0.26412148  0.60306930  0.95052654     0.41990
Cu1864     Cu  0.27415127  0.62290548  0.92163290     0.43880
N1865       N  0.29072383  0.64288047  0.93668316    -0.34480
N1866       N  0.28679147  0.63908650  0.92476754    -0.28740
C1867       C  0.29218491  0.64725698  0.91569570    -0.04840
C1868       C  0.29989258  0.65673022  0.92220812     0.07380
C1869       C  0.29873991  0.65355721  0.93555309     0.01180
H1870       H  0.29056659  0.64631698  0.90511830     0.08830
H1871       H  0.30309273  0.65880306  0.94385656     0.07910
N1872       N  0.26269315  0.60561155  0.92050444    -0.35930
N1873       N  0.25961530  0.59801470  0.93080461    -0.28110
C1874       C  0.25290124  0.58726496  0.92638417    -0.03350
C1875       C  0.25149344  0.58827672  0.91271336     0.05260
C1876       C  0.25776243  0.60005542  0.90937233     0.03350
H1877       H  0.24905756  0.57945157  0.93268556     0.08460
H1878       H  0.25886912  0.60418174  0.89950909     0.07290
C1879       C  0.32422410  0.68541651  0.91607105     0.03320
C1880       C  0.31995604  0.68938470  0.90342068    -0.12830
C1881       C  0.30940494  0.68299102  0.89701563     0.00820
C1882       C  0.30301097  0.67244098  0.90342218    -0.11350
C1883       C  0.30698005  0.66817336  0.91607242     0.03320
C1884       C  0.31755437  0.67484296  0.92249179    -0.10770
H1885       H  0.32479936  0.69764565  0.89861874     0.08910
H1886       H  0.29474903  0.66759809  0.89862148     0.06440
H1887       H  0.32079216  0.67160563  0.93222435     0.06290
N1888       N  0.11553010  0.52291103  0.76909720    -0.27100
N1889       N  0.12645447  0.52215640  0.77638814    -0.34950
C1890       C  0.12961156  0.50937032  0.77834404     0.01240
C1891       C  0.12029387  0.50152390  0.77204729     0.07270
C1892       C  0.11146521  0.51041783  0.76623851    -0.05830
H1893       H  0.13811248  0.50606787  0.78403762     0.07940
H1894       H  0.10275302  0.50800211  0.76042674     0.09140
Cu1895     Cu  0.13716147  0.53799277  0.78382724     0.44170
Cu1896     Cu  0.10699682  0.54113383  0.76352141     0.41990
Cu1897     Cu  0.12692695  0.57000517  0.77339403     0.43880
N1898       N  0.14683293  0.55494625  0.79007533    -0.34480
N1899       N  0.14308764  0.56686120  0.78606131    -0.28740
C1900       C  0.15128424  0.57593778  0.79140817    -0.04840
C1901       C  0.16072153  0.56943118  0.79917433     0.07380
C1902       C  0.15750340  0.55608503  0.79810287     0.01180
H1903       H  0.15038427  0.58651418  0.78972321     0.08830
H1904       H  0.16271395  0.54778357  0.80252236     0.07910
N1905       N  0.10963088  0.57116498  0.76193895    -0.35930
N1906       N  0.10199165  0.56088013  0.75891496    -0.28110
C1907       C  0.09124909  0.56532901  0.75218883    -0.03350
C1908       C  0.09231284  0.57899892  0.75071635     0.05260
C1909       C  0.10411386  0.58230881  0.75696219     0.03350
H1910       H  0.08340410  0.55904686  0.74838075     0.08460
H1911       H  0.10828122  0.59216064  0.75802376     0.07290
N1912       N  0.22624545  0.52293445  0.88042743    -0.27100
N1913       N  0.21898753  0.52222786  0.86948248    -0.34950
C1914       C  0.21700837  0.50945932  0.86629481     0.01240
C1915       C  0.22325221  0.50156484  0.87561144     0.07270
C1916       C  0.22905729  0.51041698  0.88447619    -0.05830
H1917       H  0.21133504  0.50620219  0.85777068     0.07940
H1918       H  0.23483836  0.50795548  0.89319791     0.09140
Cu1919     Cu  0.21161476  0.53809125  0.85876968     0.44170
Cu1920     Cu  0.23183350  0.54114733  0.88897732     0.41990
Cu1921     Cu  0.22197278  0.57005209  0.86896763     0.43880
N1922       N  0.20538621  0.55501556  0.84903410    -0.34480
N1923       N  0.20937106  0.56693263  0.85277413    -0.28740
C1924       C  0.20406166  0.57600059  0.84453410    -0.04840
C1925       C  0.19635271  0.56948026  0.83507069     0.07380
C1926       C  0.19741662  0.55613883  0.83832159     0.01180
H1927       H  0.20574074  0.58657688  0.84541725     0.08830
H1928       H  0.19303908  0.54783020  0.83310369     0.07910
N1929       N  0.23339710  0.57119037  0.88626264    -0.35930
N1930       N  0.23642239  0.56091599  0.89392708    -0.28110
C1931       C  0.24313886  0.56538950  0.90465621    -0.03350
C1932       C  0.24460054  0.57905827  0.90354994     0.05260
C1933       C  0.23835899  0.58234429  0.89174635     0.03350
H1934       H  0.24694569  0.55912547  0.91252278     0.08460
H1935       H  0.23728831  0.59218814  0.88755220     0.07290
C1936       C  0.17216710  0.57556581  0.80625543     0.03320
C1937       C  0.17651542  0.58816589  0.80220983    -0.12830
C1938       C  0.18708242  0.59455665  0.80859599     0.00820
C1939       C  0.19339805  0.58819086  0.81922501    -0.11350
C1940       C  0.18934341  0.57559176  0.82356580     0.03320
C1941       C  0.17876190  0.56918506  0.81690143    -0.10770
H1942       H  0.17172358  0.59293499  0.79389340     0.08910
H1943       H  0.20166830  0.59297754  0.82407002     0.06440
H1944       H  0.17546012  0.55949385  0.82019628     0.06290
N1945       N  0.79718391  0.22390802  0.32415605    -0.27100
N1946       N  0.80597123  0.22438117  0.33389214    -0.34950
C1947       C  0.81485296  0.23396445  0.33131260     0.01240
C1948       C  0.81139558  0.23976213  0.31939655     0.07270
C1949       C  0.80016717  0.23320206  0.31510195    -0.05830
H1950       H  0.82314407  0.23650472  0.33766400     0.07940
H1951       H  0.79463710  0.23492643  0.30604502     0.09140
Cu1952     Cu  0.80550762  0.21217311  0.35018231     0.44170
Cu1953     Cu  0.78191136  0.21049660  0.32330041     0.41990
Cu1954     Cu  0.78023634  0.18690148  0.35018508     0.43880
N1955       N  0.80254729  0.19912628  0.36554003    -0.34480
N1956       N  0.79328538  0.18986416  0.36554123    -0.28740
C1957       C  0.79387589  0.18308493  0.37698140    -0.04840
C1958       C  0.80406338  0.18835121  0.38461937     0.07380
C1959       C  0.80932821  0.19853767  0.37697927     0.01180
H1960       H  0.78731223  0.17494989  0.37940785     0.08830
H1961       H  0.81746352  0.20510180  0.37940362     0.07910
N1962       N  0.76802701  0.18643725  0.33389513    -0.35930
N1963       N  0.76849993  0.19522420  0.32415862    -0.28110
C1964       C  0.75920547  0.19224097  0.31510504    -0.03350
C1965       C  0.75264518  0.18101294  0.31940014     0.05260
C1966       C  0.75844328  0.17755568  0.33131616     0.03350
H1967       H  0.75748105  0.19777079  0.30604799     0.08460
H1968       H  0.75590303  0.16926482  0.33766777     0.07290
N1969       N  0.69727430  0.16930492  0.26993311    -0.27100
N1970       N  0.68845819  0.15960195  0.26943131    -0.34950
C1971       C  0.67961223  0.16223206  0.25982227     0.01240
C1972       C  0.68313397  0.17414764  0.25405124     0.07270
C1973       C  0.69435452  0.17838720  0.26064778    -0.05830
H1974       H  0.67130488  0.15591889  0.25724697     0.07940
H1975       H  0.69992603  0.18742179  0.25895287     0.09140
Cu1976     Cu  0.68889115  0.14330924  0.28165985     0.44170
Cu1977     Cu  0.71250492  0.17008229  0.28334722     0.41990
Cu1978     Cu  0.71423736  0.14327943  0.30700024     0.43880
N1979       N  0.69188772  0.12793848  0.29470960    -0.34480
N1980       N  0.70115291  0.12791836  0.30397738    -0.28740
C1981       C  0.70058544  0.11643584  0.31070028    -0.04840
C1982       C  0.69041788  0.10879125  0.30539273     0.07380
C1983       C  0.68513660  0.11647553  0.29524365     0.01180
H1984       H  0.70716975  0.11397102  0.31881289     0.08830
H1985       H  0.67701960  0.11405236  0.28865226     0.07910
N1986       N  0.72645959  0.15960329  0.30739597    -0.35930
N1987       N  0.72593430  0.16929666  0.29856341    -0.28110
C1988       C  0.73520917  0.17839377  0.30145069    -0.03350
C1989       C  0.74182889  0.17418466  0.31266852     0.05260
C1990       C  0.73607859  0.16226434  0.31622337     0.03350
H1991       H  0.73687719  0.18742419  0.29586041     0.08460
H1992       H  0.73867543  0.15597022  0.32454322     0.07290
N1993       N  0.72610201  0.29496615  0.17296719    -0.27100
N1994       N  0.72660887  0.30375094  0.16323057    -0.34950
C1995       C  0.73620365  0.31261443  0.16584039     0.01240
C1996       C  0.74196541  0.30914245  0.17777467     0.07270
C1997       C  0.73537505  0.29792836  0.18204751    -0.05830
H1998       H  0.73877641  0.32090304  0.15949927     0.07940
H1999       H  0.73706504  0.29239125  0.19110681     0.09140
Cu2000     Cu  0.71441297  0.30328777  0.14690490     0.44170
Cu2001     Cu  0.71268794  0.27971861  0.17380134     0.41990
Cu2002     Cu  0.68912009  0.27799539  0.14690253     0.43880
N2003       N  0.70136817  0.30030573  0.13151940    -0.34480
N2004       N  0.69210443  0.29104226  0.13151837    -0.28740
C2005       C  0.68536020  0.29160117  0.12005066    -0.04840
C2006       C  0.69064829  0.30176487  0.11238971     0.07380
C2007       C  0.70081109  0.30705154  0.12005249     0.01180
H2008       H  0.67724416  0.28501912  0.11760899     0.08830
H2009       H  0.70739369  0.31516769  0.11761261     0.07910
N2010       N  0.68865601  0.26579811  0.16322793    -0.35930
N2011       N  0.69744041  0.26630462  0.17296495    -0.28110
C2012       C  0.69447809  0.25703110  0.18204475    -0.03350
C2013       C  0.68326430  0.25044059  0.17777145     0.05260
C2014       C  0.67979260  0.25620291  0.16583723     0.03350
H2015       H  0.70001496  0.25534092  0.19110419     0.08460
H2016       H  0.67150411  0.25363019  0.15949579     0.07290
N2017       N  0.67157093  0.19509794  0.22734975    -0.27100
N2018       N  0.66187607  0.18626926  0.22780909    -0.34950
C2019       C  0.66448252  0.17741033  0.23741168     0.01240
C2020       C  0.67637379  0.18093295  0.24322679     0.07270
C2021       C  0.68062469  0.19217016  0.23666203    -0.05830
H2022       H  0.65817193  0.16908894  0.23994797     0.07940
H2023       H  0.68965189  0.19774289  0.23839222     0.09140
Cu2024     Cu  0.64562549  0.18667130  0.21553296     0.44170
Cu2025     Cu  0.67238819  0.21034693  0.21394015     0.41990
Cu2026     Cu  0.64564278  0.21198269  0.19020986     0.43880
N2027       N  0.63030607  0.18961434  0.20241984    -0.34480
N2028       N  0.63030637  0.19887473  0.19314943    -0.28740
C2029       C  0.61886870  0.19826714  0.18635714    -0.04840
C2030       C  0.61123204  0.18807573  0.19162290     0.07380
C2031       C  0.61887213  0.18282356  0.20182113     0.01180
H2032       H  0.61643413  0.20483217  0.17821997     0.08830
H2033       H  0.61644284  0.17469778  0.20839906     0.07910
N2034       N  0.66192435  0.22423768  0.18984123    -0.35930
N2035       N  0.67160405  0.22375940  0.19869141    -0.28110
C2036       C  0.68067892  0.23305340  0.19578688    -0.03350
C2037       C  0.67646399  0.23962965  0.18454088     0.05260
C2038       C  0.66456740  0.23383703  0.18099015     0.03350
H2039       H  0.68969962  0.23476177  0.20138087     0.08460
H2040       H  0.65827793  0.23638751  0.17265256     0.07290
N2041       N  0.79730897  0.32083702  0.22735028    -0.27100
N2042       N  0.80613773  0.33053179  0.22780868    -0.34950
C2043       C  0.81499719  0.32792567  0.23741087     0.01240
C2044       C  0.81147479  0.31603467  0.24322659     0.07270
C2045       C  0.80023719  0.31178359  0.23666266    -0.05830
H2046       H  0.82331884  0.33423627  0.23994642     0.07940
H2047       H  0.79466448  0.30275660  0.23839348     0.09140
Cu2048     Cu  0.80573474  0.34678139  0.21553146     0.44170
Cu2049     Cu  0.78205933  0.32001963  0.21394181     0.41990
Cu2050     Cu  0.78042268  0.34676429  0.19020948     0.43880
N2051       N  0.80279173  0.36210011  0.20241766    -0.34480
N2052       N  0.79353117  0.36210017  0.19314743    -0.28740
C2053       C  0.79413924  0.37353767  0.18635485    -0.04840
C2054       C  0.80433111  0.38117372  0.19162032     0.07380
C2055       C  0.80958301  0.37353352  0.20181858     0.01180
H2056       H  0.78757418  0.37597270  0.17821766     0.08830
H2057       H  0.81770900  0.37596236  0.20839660     0.07910
N2058       N  0.76816785  0.33048285  0.18984319    -0.35930
N2059       N  0.76864638  0.32080359  0.19869383    -0.28110
C2060       C  0.75935235  0.31172856  0.19579005    -0.03350
C2061       C  0.75277591  0.31594305  0.18454407     0.05260
C2062       C  0.75856833  0.32783943  0.18099258     0.03350
H2063       H  0.75764431  0.30270810  0.20138431     0.08460
H2064       H  0.75601782  0.33412837  0.17265466     0.07290
N2065       N  0.82310366  0.29513411  0.26993218    -0.27100
N2066       N  0.83280615  0.30395078  0.26943098    -0.34950
C2067       C  0.83017576  0.31279696  0.25982221     0.01240
C2068       C  0.81826045  0.30927471  0.25405087     0.07270
C2069       C  0.81402139  0.29805371  0.26064687    -0.05830
H2070       H  0.83648845  0.32110478  0.25724738     0.07940
H2071       H  0.80498710  0.29248164  0.25895159     0.09140
Cu2072     Cu  0.84909816  0.30351784  0.28166034     0.44170
Cu2073     Cu  0.82232704  0.27990300  0.28334535     0.41990
Cu2074     Cu  0.84912912  0.27817063  0.30699997     0.43880
N2075       N  0.86446862  0.30052168  0.29471047    -0.34480
N2076       N  0.86448940  0.29125629  0.30397806    -0.28740
C2077       C  0.87597210  0.29182431  0.31070080    -0.04840
C2078       C  0.88361599  0.30199241  0.30539319     0.07380
C2079       C  0.87593119  0.30727346  0.29524440     0.01180
H2080       H  0.87843763  0.28523997  0.31881302     0.08830
H2081       H  0.87835375  0.31539042  0.28865295     0.07910
N2082       N  0.83280563  0.26594779  0.30739373    -0.35930
N2083       N  0.82311269  0.26647311  0.29856070    -0.28110
C2084       C  0.81401556  0.25719801  0.30144721    -0.03350
C2085       C  0.81822421  0.25057811  0.31266500     0.05260
C2086       C  0.83014427  0.25632848  0.31622065     0.03350
H2087       H  0.80498521  0.25553013  0.29585654     0.08460
H2088       H  0.83643790  0.25373168  0.32454094     0.07290
N2089       N  0.72621843  0.37727426  0.02708765    -0.27100
N2090       N  0.71895183  0.36633431  0.02637008    -0.34950
C2091       C  0.71705112  0.36310909  0.01359722     0.01240
C2092       C  0.72335703  0.37239316  0.00571119     0.07270
C2093       C  0.72911414  0.38127645  0.01457989    -0.05830
H2094       H  0.71138741  0.35458383  0.01032730     0.07940
H2095       H  0.73491725  0.38998410  0.01213426     0.09140
Cu2096     Cu  0.71146309  0.35569791  0.04225499     0.44170
Cu2097     Cu  0.73169811  0.38591000  0.04530666     0.41990
Cu2098     Cu  0.72164084  0.36613186  0.07426055     0.43880
N2099       N  0.70510929  0.34609978  0.05923213    -0.34480
N2100       N  0.70902711  0.34992213  0.07114530    -0.28740
C2101       C  0.70362840  0.34176937  0.08023460    -0.04840
C2102       C  0.69592582  0.33227695  0.07374293     0.07380
C2103       C  0.69709334  0.33542165  0.06038805     0.01180
H2104       H  0.70523388  0.34273782  0.09081177     0.08830
H2105       H  0.69274339  0.33015706  0.05209532     0.07910
N2106       N  0.73306784  0.38345053  0.07537565    -0.35930
N2107       N  0.73616301  0.39103422  0.06506867    -0.28110
C2108       C  0.74284430  0.40180575  0.06950707    -0.03350
C2109       C  0.74421276  0.40081807  0.08319198     0.05260
C2110       C  0.73795249  0.38903065  0.08651824     0.03350
H2111       H  0.74669413  0.40962020  0.06321118     0.08460
H2112       H  0.73681925  0.38491285  0.09638236     0.07290
N2113       N  0.61514118  0.26620172  0.02708730    -0.27100
N2114       N  0.62608107  0.27346857  0.02636988    -0.34950
C2115       C  0.62930661  0.27536975  0.01359715     0.01240
C2116       C  0.62002291  0.26906398  0.00571079     0.07270
C2117       C  0.61113941  0.26330638  0.01457932    -0.05830
H2118       H  0.63783198  0.28103378  0.01032754     0.07940
H2119       H  0.60243188  0.25750313  0.01213337     0.09140
Cu2120     Cu  0.63671734  0.28095727  0.04225445     0.44170
Cu2121     Cu  0.60650518  0.26072135  0.04530674     0.41990
Cu2122     Cu  0.62628260  0.27077967  0.07426005     0.43880
N2123       N  0.64631509  0.28731127  0.05923128    -0.34480
N2124       N  0.64249215  0.28339375  0.07114443    -0.28740
C2125       C  0.65064482  0.28879225  0.08023373    -0.04840
C2126       C  0.66013797  0.29649414  0.07374208     0.07380
C2127       C  0.65699366  0.29532668  0.06038718     0.01180
H2128       H  0.64967603  0.28718669  0.09081088     0.08830
H2129       H  0.66225897  0.29967597  0.05209447     0.07910
N2130       N  0.60896455  0.25935155  0.07537606    -0.35930
N2131       N  0.60138083  0.25625599  0.06506927    -0.28110
C2132       C  0.59060957  0.24957427  0.06950820    -0.03350
C2133       C  0.59159746  0.24820583  0.08319322     0.05260
C2134       C  0.60338481  0.25446666  0.08651893     0.03350
H2135       H  0.58279502  0.24572413  0.06321257     0.08460
H2136       H  0.60750272  0.25560024  0.09638292     0.07290
C2137       C  0.68881431  0.32085223  0.07990553     0.03320
C2138       C  0.69275042  0.31661368  0.09257939    -0.12830
C2139       C  0.68634665  0.30606846  0.09899318     0.00820
C2140       C  0.67580110  0.29966648  0.09257850    -0.11350
C2141       C  0.67156354  0.30360391  0.07990487     0.03320
C2142       C  0.67825321  0.31416430  0.07347869    -0.10770
H2143       H  0.70100026  0.32146979  0.09738918     0.08910
H2144       H  0.67094381  0.29141699  0.09738753     0.06440
H2145       H  0.67504248  0.31737583  0.06372922     0.06290
N2146       N  0.72593304  0.02353233  0.38090932    -0.27100
N2147       N  0.71863717  0.02282950  0.36998783    -0.34950
C2148       C  0.71672733  0.01006156  0.36674829     0.01240
C2149       C  0.72305747  0.00215697  0.37600152     0.07270
C2150       C  0.72884012  0.01100961  0.38488534    -0.05830
H2151       H  0.71104348  0.00681014  0.35822880     0.07940
H2152       H  0.73467075  0.00854312  0.39357232     0.09140
Cu2153     Cu  0.71112081  0.03869698  0.35936442     0.44170
Cu2154     Cu  0.73143798  0.04175642  0.38953721     0.41990
Cu2155     Cu  0.72130439  0.07067666  0.36972841     0.43880
N2156       N  0.70475595  0.05564764  0.34974897    -0.34480
N2157       N  0.70867212  0.06756493  0.35356109    -0.28740
C2158       C  0.70328304  0.07665588  0.34540075    -0.04840
C2159       C  0.69559579  0.07015461  0.33590834     0.07380
C2160       C  0.69675328  0.05679610  0.33906216     0.01180
H2161       H  0.70489750  0.08723557  0.34635799     0.08830
H2162       H  0.69241704  0.04849692  0.33379504     0.07910
N2163       N  0.73278027  0.07183231  0.38698620    -0.35930
N2164       N  0.73590813  0.06154624  0.39459348    -0.28110
C2165       C  0.74262109  0.06603052  0.40532490    -0.03350
C2166       C  0.74397347  0.07971997  0.40427669     0.05260
C2167       C  0.73767118  0.08300226  0.39250328     0.03350
H2168       H  0.74650068  0.05976365  0.41315330     0.08460
H2169       H  0.73650921  0.09285484  0.38835365     0.07290
N2170       N  0.61492968  0.02345785  0.26984852    -0.27100
N2171       N  0.62586759  0.02272228  0.27712243    -0.34950
C2172       C  0.62908309  0.00993967  0.27901627     0.01240
C2173       C  0.61979198  0.00207869  0.27269512     0.07270
C2174       C  0.61091697  0.01095976  0.26693886    -0.05830
H2175       H  0.63760797  0.00664811  0.28468006     0.07940
H2176       H  0.60221043  0.00853190  0.26112345     0.09140
Cu2177     Cu  0.63652502  0.03858461  0.28460851     0.44170
Cu2178     Cu  0.60630203  0.04165681  0.26434910     0.41990
Cu2179     Cu  0.62612806  0.07056793  0.27431475     0.43880
N2180       N  0.64613625  0.05557100  0.29089804    -0.34480
N2181       N  0.64232220  0.06747889  0.28693010    -0.28740
C2182       C  0.65047066  0.07658703  0.29229629    -0.04840
C2183       C  0.65995196  0.07011115  0.30003160     0.07380
C2184       C  0.65680882  0.05674732  0.29891794     0.01180
H2185       H  0.64950038  0.08716381  0.29065312     0.08830
H2186       H  0.66206423  0.04846199  0.30331395     0.07910
N2187       N  0.60882550  0.07169663  0.26289405    -0.35930
N2188       N  0.60122164  0.06139945  0.25982544    -0.28110
C2189       C  0.59046849  0.06584275  0.25311353    -0.03350
C2190       C  0.59149441  0.07952185  0.25170334     0.05260
C2191       C  0.60327725  0.08284315  0.25796807     0.03350
H2192       H  0.58264629  0.05955309  0.24927075     0.08460
H2193       H  0.60741679  0.09270221  0.25907037     0.07290
C2194       C  0.67134590  0.07629357  0.30715834     0.03320
C2195       C  0.67558586  0.08897019  0.30322501    -0.12830
C2196       C  0.68610582  0.09539062  0.30966594     0.00820
C2197       C  0.69247697  0.08897895  0.32023202    -0.11350
C2198       C  0.68852795  0.07630956  0.32446236     0.03320
C2199       C  0.67799684  0.06987657  0.31774725    -0.10770
H2200       H  0.67075185  0.09377572  0.29495334     0.08910
H2201       H  0.70070950  0.09378953  0.32511497     0.06440
H2202       H  0.67477844  0.06012999  0.32095946     0.06290
N2203       N  0.52619977  0.22322598  0.11569433    -0.27100
N2204       N  0.52546918  0.21595444  0.12662984    -0.34950
C2205       C  0.51269249  0.21401786  0.12981629     0.01240
C2206       C  0.50481759  0.22030559  0.12050994     0.07270
C2207       C  0.51369079  0.22609061  0.11165372    -0.05830
H2208       H  0.50941594  0.20834190  0.13833161     0.07940
H2209       H  0.51124870  0.23188906  0.10293851     0.09140
Cu2210     Cu  0.54131212  0.20850282  0.13732871     0.44170
Cu2211     Cu  0.54442815  0.22875550  0.10711939     0.41990
Cu2212     Cu  0.57330894  0.21880115  0.12704791     0.43880
N2213       N  0.55825448  0.20221949  0.14700639    -0.34480
N2214       N  0.57017220  0.20618315  0.14324042    -0.28740
C2215       C  0.57924876  0.20082793  0.15144186    -0.04840
C2216       C  0.57273736  0.19311065  0.16090468     0.07380
C2217       C  0.55938900  0.19421812  0.15769605     0.01180
H2218       H  0.58982765  0.20247545  0.15052879     0.08830
H2219       H  0.55108520  0.18984343  0.16292494     0.07910
N2220       N  0.57448340  0.23021497  0.10973161    -0.35930
N2221       N  0.56420311  0.23327337  0.10208886    -0.28110
C2222       C  0.56867990  0.23995164  0.09133299    -0.03350
C2223       C  0.58236192  0.24135621  0.09239333     0.05260
C2224       C  0.58564581  0.23512007  0.10420656     0.03350
H2225       H  0.56241073  0.24377219  0.08347744     0.08460
H2226       H  0.59549565  0.23401325  0.10837767     0.07290
N2227       N  0.52624177  0.11196149  0.22642757    -0.27100
N2228       N  0.52551916  0.12292942  0.21920042    -0.34950
C2229       C  0.51274544  0.12611267  0.21722096     0.01240
C2230       C  0.50487387  0.11676566  0.22343428     0.07270
C2231       C  0.51373672  0.10789098  0.22921955    -0.05830
H2232       H  0.50947020  0.13465053  0.21156756     0.07940
H2233       H  0.51129269  0.09914766  0.23497256     0.09140
Cu2234     Cu  0.54136987  0.13366452  0.21187043     0.44170
Cu2235     Cu  0.54443854  0.10339296  0.23201222     0.41990
Cu2236     Cu  0.57333283  0.12341215  0.22227745     0.43880
N2237       N  0.55830316  0.14338395  0.20568330    -0.34480
N2238       N  0.57021735  0.13963100  0.20968693    -0.28740
C2239       C  0.57928996  0.14785570  0.20437673    -0.04840
C2240       C  0.57277570  0.15731855  0.19664542     0.07380
C2241       C  0.55943322  0.15408630  0.19770084     0.01180
H2242       H  0.58986690  0.14695354  0.20605839     0.08830
H2243       H  0.55112775  0.15930277  0.19329652     0.07910
N2244       N  0.57446117  0.10606768  0.23364911    -0.35930
N2245       N  0.56418046  0.09840393  0.23662679    -0.28110
C2246       C  0.56863162  0.08764101  0.24331695    -0.03350
C2247       C  0.58229671  0.08871926  0.24480976     0.05260
C2248       C  0.58560286  0.10054507  0.23861637     0.03350
H2249       H  0.56235446  0.07977241  0.24708490     0.08460
H2250       H  0.59545111  0.10472876  0.23758484     0.07290
C2251       C  0.57889544  0.16878979  0.18959522     0.03320
C2252       C  0.59151237  0.17310873  0.19361628    -0.12830
C2253       C  0.59788656  0.18370172  0.18725748     0.00820
C2254       C  0.59148764  0.19007414  0.17668376    -0.11350
C2255       C  0.57887274  0.18604787  0.17236514     0.03320
C2256       C  0.57248184  0.17543942  0.17900148    -0.10770
H2257       H  0.59630844  0.16827289  0.20189127     0.08910
H2258       H  0.59626240  0.19836543  0.17186321     0.06440
H2259       H  0.56277763  0.17216050  0.17572204     0.06290
N2260       N  0.76884802  0.11244674  0.46950629    -0.27100
N2261       N  0.77609539  0.12339680  0.47021939    -0.34950
C2262       C  0.77802114  0.12661897  0.48298133     0.01240
C2263       C  0.77175176  0.11731696  0.49086147     0.07270
C2264       C  0.76598751  0.10842724  0.48201129    -0.05830
H2265       H  0.78368453  0.13514775  0.48624268     0.07940
H2266       H  0.76021199  0.09970343  0.48446480     0.09140
Cu2267     Cu  0.78355089  0.13404256  0.45437417     0.44170
Cu2268     Cu  0.76336433  0.10383138  0.45130772     0.41990
Cu2269     Cu  0.77335507  0.12369710  0.42237894     0.43880
N2270       N  0.78990179  0.14367753  0.43746125    -0.34480
N2271       N  0.78598087  0.13989893  0.42553651    -0.28740
C2272       C  0.79137690  0.14809336  0.41648532    -0.04840
C2273       C  0.79907432  0.15755979  0.42302440     0.07380
C2274       C  0.79791193  0.15436118  0.43635948     0.01180
H2275       H  0.78976555  0.14717989  0.40590402     0.08830
H2276       H  0.80224748  0.15959975  0.44467652     0.07910
N2277       N  0.76194558  0.10635713  0.42125933    -0.35930
N2278       N  0.75888845  0.09875126  0.43156121    -0.28110
C2279       C  0.75222436  0.08796952  0.42713177    -0.03350
C2280       C  0.75082481  0.08896756  0.41345577     0.05260
C2281       C  0.75704723  0.10077546  0.41012312     0.03350
H2282       H  0.74840737  0.08014087  0.43343017     0.08460
H2283       H  0.75814784  0.10490355  0.40025972     0.07290
N2284       N  0.87997404  0.22357572  0.46950090    -0.27100
N2285       N  0.86902380  0.21632882  0.47021706    -0.34950
C2286       C  0.86580415  0.21440549  0.48298011     0.01240
C2287       C  0.87510812  0.22067614  0.49085717     0.07270
C2288       C  0.88399617  0.22643843  0.48200431    -0.05830
H2289       H  0.85727571  0.20874300  0.48624442     0.07940
H2290       H  0.89272075  0.23221417  0.48445485     0.09140
Cu2291     Cu  0.85837506  0.20887174  0.45437361     0.44170
Cu2292     Cu  0.88858701  0.22905648  0.45130169     0.41990
Cu2293     Cu  0.86871810  0.21906733  0.42237599     0.43880
N2294       N  0.84873849  0.20252116  0.43746054    -0.34480
N2295       N  0.85251616  0.20644242  0.42553548    -0.28740
C2296       C  0.84432145  0.20104631  0.41648466    -0.04840
C2297       C  0.83485580  0.19334819  0.42302406     0.07380
C2298       C  0.83805509  0.19451045  0.43635911     0.01180
H2299       H  0.84523457  0.20265758  0.40590328     0.08830
H2300       H  0.83281745  0.19017391  0.44467630     0.07910
N2301       N  0.88605907  0.23047474  0.42125459    -0.35930
N2302       N  0.89366579  0.23353115  0.43155591    -0.28110
C2303       C  0.90444787  0.24019430  0.42712627    -0.03350
C2304       C  0.90344929  0.24159388  0.41345061     0.05260
C2305       C  0.89164077  0.23537258  0.41011817     0.03350
H2306       H  0.91227706  0.24401073  0.43342442     0.08460
H2307       H  0.88751219  0.23427259  0.40025495     0.07290
C2308       C  0.82337727  0.18628677  0.41692561     0.03320
C2309       C  0.81903414  0.19032784  0.40432709    -0.12830
C2310       C  0.80844461  0.18397203  0.39795138     0.00820
C2311       C  0.80209136  0.17338147  0.40432761    -0.11350
C2312       C  0.80613366  0.16903942  0.41692588     0.03320
C2313       C  0.81674266  0.17567639  0.42332701    -0.10770
H2314       H  0.82384925  0.19861863  0.39954713     0.08910
H2315       H  0.79380144  0.16856449  0.39954811     0.06440
H2316       H  0.82003448  0.17238536  0.43302373     0.06290
N2317       N  0.96888314  0.26648944  0.38090814    -0.27100
N2318       N  0.96958725  0.27378484  0.36998635    -0.34950
C2319       C  0.98235587  0.27569399  0.36674820     0.01240
C2320       C  0.99025904  0.26936372  0.37600275     0.07270
C2321       C  0.98140518  0.26358192  0.38488573    -0.05830
H2322       H  0.98560871  0.28137704  0.35822872     0.07940
H2323       H  0.98387030  0.25775135  0.39357308     0.09140
Cu2324     Cu  0.95372024  0.28130011  0.35936038     0.44170
Cu2325     Cu  0.95065948  0.26098412  0.38953524     0.41990
Cu2326     Cu  0.92174129  0.27111145  0.36972436     0.43880
N2327       N  0.93676766  0.28766056  0.34974426    -0.34480
N2328       N  0.92485114  0.28374218  0.35355699    -0.28740
C2329       C  0.91575851  0.28912851  0.34539698    -0.04840
C2330       C  0.92225761  0.29681635  0.33590390     0.07380
C2331       C  0.93561681  0.29566220  0.33905694     0.01180
H2332       H  0.90517898  0.28751198  0.34635525     0.08830
H2333       H  0.94391480  0.30000031  0.33378926     0.07910
N2334       N  0.92058492  0.25963753  0.38698199    -0.35930
N2335       N  0.93087059  0.25651157  0.39459044    -0.28110
C2336       C  0.92638610  0.24979881  0.40532178    -0.03350
C2337       C  0.91269693  0.24844483  0.40427199     0.05260
C2338       C  0.90941491  0.25474586  0.39249810     0.03350
H2339       H  0.93265262  0.24592060  0.41315119     0.08460
H2340       H  0.89956244  0.25590654  0.38834741     0.07290
N2341       N  0.96895062  0.37748047  0.26985213    -0.27100
N2342       N  0.96968406  0.36654261  0.27712616    -0.34950
C2343       C  0.98246593  0.36332524  0.27902142     0.01240
C2344       C  0.99032862  0.37261512  0.27270098     0.07270
C2345       C  0.98144959  0.38149142  0.26694364    -0.05830
H2346       H  0.98575562  0.35479997  0.28468542     0.07940
H2347       H  0.98387935  0.39019739  0.26112835     0.09140
Cu2348     Cu  0.95382070  0.35588703  0.28461011     0.44170
Cu2349     Cu  0.95075325  0.38610977  0.26435099     0.41990
Cu2350     Cu  0.92184017  0.36628312  0.27431375     0.43880
N2351       N  0.93683475  0.34627546  0.29089738    -0.34480
N2352       N  0.92492708  0.35008908  0.28692848    -0.28740
C2353       C  0.91581869  0.34194026  0.29229369    -0.04840
C2354       C  0.92229457  0.33245935  0.30002929     0.07380
C2355       C  0.93565837  0.33560288  0.29891684     0.01180
H2356       H  0.90524177  0.34291016  0.29064977     0.08830
H2357       H  0.94394372  0.33034793  0.30331347     0.07910
N2358       N  0.92071360  0.38358547  0.26289389    -0.35930
N2359       N  0.93101095  0.39118958  0.25982615    -0.28110
C2360       C  0.92656793  0.40194242  0.25311372    -0.03350
C2361       C  0.91288893  0.40091574  0.25170252     0.05260
C2362       C  0.90956736  0.38913313  0.25796704     0.03350
H2363       H  0.93285767  0.40976465  0.24927116     0.08460
H2364       H  0.89970819  0.38499308  0.25906841     0.07290
C2365       C  0.91611280  0.32106566  0.30715612     0.03320
C2366       C  0.90343591  0.31682548  0.30322415    -0.12830
C2367       C  0.89701680  0.30630489  0.30966540     0.00820
C2368       C  0.90343018  0.29993354  0.32023043    -0.11350
C2369       C  0.91610007  0.30388330  0.32445912     0.03320
C2370       C  0.92253138  0.31441493  0.31774383    -0.10770
H2371       H  0.89862933  0.32165976  0.29495337     0.08910
H2372       H  0.89862067  0.29170063  0.32511364     0.06440
H2373       H  0.93227821  0.31763391  0.32095507     0.06290
N2374       N  0.76919439  0.46621392  0.11569126    -0.27100
N2375       N  0.77646505  0.46694555  0.12662730    -0.34950
C2376       C  0.77840076  0.47972265  0.12981243     0.01240
C2377       C  0.77211328  0.48759635  0.12050465     0.07270
C2378       C  0.76632948  0.47872217  0.11164910    -0.05830
H2379       H  0.78407567  0.48300039  0.13832800     0.07940
H2380       H  0.76053141  0.48116310  0.10293326     0.09140
Cu2381     Cu  0.78391546  0.45110294  0.13732888     0.44170
Cu2382     Cu  0.76366502  0.44798607  0.10711669     0.41990
Cu2383     Cu  0.77361322  0.41910722  0.12704705     0.43880
N2384       N  0.79019450  0.43415861  0.14700732    -0.34480
N2385       N  0.78622898  0.42224190  0.14324058    -0.28740
C2386       C  0.79158140  0.41316369  0.15144190    -0.04840
C2387       C  0.79929898  0.41967275  0.16090561     0.07380
C2388       C  0.79819461  0.43302160  0.15769768     0.01180
H2389       H  0.78993215  0.40258541  0.15052781     0.08830
H2390       H  0.80257091  0.44132399  0.16292723     0.07910
N2391       N  0.76220216  0.41793224  0.10973000    -0.35930
N2392       N  0.75914558  0.42821214  0.10208621    -0.28110
C2393       C  0.75246804  0.42373532  0.09133006    -0.03350
C2394       C  0.75106224  0.41005365  0.09239153     0.05260
C2395       C  0.75729684  0.40676996  0.10420549     0.03350
H2396       H  0.74864879  0.43000420  0.08347370     0.08460
H2397       H  0.75840230  0.39692056  0.10837756     0.07290
N2398       N  0.88044379  0.46616129  0.22642299    -0.27100
N2399       N  0.86947576  0.46688103  0.21919583    -0.34950
C2400       C  0.86628947  0.47965341  0.21721496     0.01240
C2401       C  0.87563464  0.48752706  0.22342741     0.07270
C2402       C  0.88451149  0.47866719  0.22921370    -0.05830
H2403       H  0.85775074  0.48292620  0.21156115     0.07940
H2404       H  0.89325437  0.48111378  0.23496650     0.09140
Cu2405     Cu  0.85874443  0.45102921  0.21186778     0.44170
Cu2406     Cu  0.88901529  0.44796713  0.23200873     0.41990
Cu2407     Cu  0.86899772  0.41906955  0.22227570     0.43880
N2408       N  0.84902596  0.43409718  0.20568152    -0.34480
N2409       N  0.85277876  0.42218318  0.20968530    -0.28740
C2410       C  0.84455381  0.41311090  0.20437515    -0.04840
C2411       C  0.83509131  0.41962583  0.19664386     0.07380
C2412       C  0.83832375  0.43296784  0.19769924     0.01180
H2413       H  0.84545552  0.40253416  0.20605682     0.08830
H2414       H  0.83310757  0.44127356  0.19329515     0.07910
N2415       N  0.88634257  0.41794491  0.23364672    -0.35930
N2416       N  0.89400545  0.42822639  0.23662367    -0.28110
C2417       C  0.90476877  0.42377679  0.24331411    -0.03350
C2418       C  0.90369160  0.41011197  0.24480773     0.05260
C2419       C  0.89186617  0.40680422  0.23861467     0.03350
H2420       H  0.91263671  0.43005490  0.24708190     0.08460
H2421       H  0.88768332  0.39695574  0.23758408     0.07290
C2422       C  0.82361979  0.41350777  0.18959368     0.03320
C2423       C  0.81929992  0.40089118  0.19361376    -0.12830
C2424       C  0.80870582  0.39451891  0.18725519     0.00820
C2425       C  0.80233329  0.40091964  0.17668249    -0.11350
C2426       C  0.80636082  0.41353465  0.17236503     0.03320
C2427       C  0.81697039  0.41992332  0.17900120    -0.10770
H2428       H  0.82413603  0.39609392  0.20188796     0.08910
H2429       H  0.79404106  0.39614620  0.17186191     0.06440
H2430       H  0.82025030  0.42962732  0.17572256     0.06290
N2431       N  0.69801019  0.72367965  0.17241268    -0.27100
N2432       N  0.68917168  0.72416316  0.16272370    -0.34950
C2433       C  0.68030024  0.73374226  0.16536449     0.01240
C2434       C  0.68382639  0.73951231  0.17726877     0.07270
C2435       C  0.69507655  0.73295014  0.18149528    -0.05830
H2436       H  0.67196825  0.73629433  0.15906592     0.07940
H2437       H  0.70065543  0.73465292  0.19052406     0.09140
Cu2438     Cu  0.68955311  0.71196896  0.14642331     0.44170
Cu2439     Cu  0.71327900  0.71030568  0.17320626     0.41990
Cu2440     Cu  0.71486973  0.68671002  0.14639447     0.43880
N2441       N  0.69251640  0.69892487  0.13106166    -0.34480
N2442       N  0.70179858  0.68967331  0.13105962    -0.28740
C2443       C  0.70124454  0.68291946  0.11960958    -0.04840
C2444       C  0.69106199  0.68818908  0.11196020     0.07380
C2445       C  0.68575671  0.69835133  0.11960807     0.01180
H2446       H  0.70784506  0.67481164  0.11717498     0.08830
H2447       H  0.67762126  0.70492158  0.11716914     0.07910
N2448       N  0.72712717  0.68625455  0.16264077    -0.35930
N2449       N  0.72667113  0.69505627  0.17235492    -0.28110
C2450       C  0.73597821  0.69209597  0.18139998    -0.03350
C2451       C  0.74253472  0.68086529  0.17711958     0.05260
C2452       C  0.73672306  0.67737938  0.16522339     0.03350
H2453       H  0.73771168  0.69764436  0.19043813     0.08460
H2454       H  0.73925963  0.66907597  0.15889095     0.07290
N2455       N  0.67205887  0.79483577  0.22677693    -0.27100
N2456       N  0.66233084  0.80363550  0.22725285    -0.34950
C2457       C  0.66492790  0.81250171  0.23684303     0.01240
C2458       C  0.67684848  0.80900843  0.24262724     0.07270
C2459       C  0.68112456  0.79778699  0.23605959    -0.05830
H2460       H  0.65859099  0.82080311  0.23939454     0.07940
H2461       H  0.69017450  0.79223464  0.23777144     0.09140
Cu2462     Cu  0.64605658  0.80315754  0.21501715     0.44170
Cu2463     Cu  0.67291635  0.77957978  0.21340648     0.41990
Cu2464     Cu  0.64615912  0.77782317  0.18974415     0.43880
N2465       N  0.63073995  0.80010007  0.20193878    -0.34480
N2466       N  0.63077685  0.79083164  0.19268611    -0.28740
C2467       C  0.61933145  0.79136849  0.18590560    -0.04840
C2468       C  0.61165072  0.80152451  0.19116298     0.07380
C2469       C  0.61926906  0.80682999  0.20134258     0.01180
H2470       H  0.61692869  0.78479010  0.17777787     0.08830
H2471       H  0.61680923  0.81495336  0.20790595     0.07910
N2472       N  0.66246405  0.76564445  0.18937099    -0.35930
N2473       N  0.67216305  0.76615516  0.19819425    -0.28110
C2474       C  0.68126183  0.75688493  0.19527704    -0.03350
C2475       C  0.67702955  0.75029899  0.18405245     0.05260
C2476       C  0.66510775  0.75605308  0.18052676     0.03350
H2477       H  0.69030536  0.75520020  0.20084564     0.08460
H2478       H  0.65880064  0.75348507  0.17221209     0.07290
N2479       N  0.69781658  0.82061962  0.26925667    -0.27100
N2480       N  0.68895875  0.83029638  0.26882177    -0.34950
C2481       C  0.68007523  0.82767220  0.25924986     0.01240
C2482       C  0.68361862  0.81578671  0.25343532     0.07270
C2483       C  0.69488729  0.81155967  0.25996627    -0.05830
H2484       H  0.67172983  0.83396861  0.25672902     0.07940
H2485       H  0.70048900  0.80254895  0.25822167     0.09140
Cu2486     Cu  0.68940063  0.84653903  0.28108878     0.44170
Cu2487     Cu  0.71312558  0.81983832  0.28258026     0.41990
Cu2488     Cu  0.71488937  0.84656809  0.30628686     0.43880
N2489       N  0.69241495  0.86186749  0.29415604    -0.34480
N2490       N  0.70172867  0.86189694  0.30337450    -0.28740
C2491       C  0.70113839  0.87335801  0.31012599    -0.04840
C2492       C  0.69090418  0.88097358  0.30488589     0.07380
C2493       C  0.68560998  0.87329800  0.29474871     0.01180
H2494       H  0.70774712  0.87582757  0.31821341     0.08830
H2495       H  0.67744488  0.87570037  0.28820471     0.07910
N2496       N  0.72716385  0.83027178  0.30657838    -0.35930
N2497       N  0.72663188  0.82060341  0.29772743    -0.28110
C2498       C  0.73594536  0.81151520  0.30055997    -0.03350
C2499       C  0.74259452  0.81570586  0.31176263     0.05260
C2500       C  0.73682318  0.82760429  0.31536260     0.03350
H2501       H  0.73761444  0.80250059  0.29494952     0.08460
H2502       H  0.73942813  0.83387675  0.32368836     0.07290
N2503       N  0.79803749  0.66926199  0.22641983    -0.27100
N2504       N  0.80688301  0.65957447  0.22685972    -0.34950
C2505       C  0.81578912  0.66220794  0.23640038     0.01240
C2506       C  0.81227646  0.67411029  0.24218957     0.07270
C2507       C  0.80099960  0.67834246  0.23567991    -0.05830
H2508       H  0.82413327  0.65590675  0.23891248     0.07940
H2509       H  0.79542062  0.68736991  0.23741244     0.09140
Cu2510     Cu  0.80644496  0.64330001  0.21465501     0.44170
Cu2511     Cu  0.78272743  0.67003237  0.21311567     0.41990
Cu2512     Cu  0.78102085  0.64324086  0.18947354     0.43880
N2513       N  0.80344556  0.62793882  0.20164229    -0.34480
N2514       N  0.79413779  0.62791187  0.19242121    -0.28740
C2515       C  0.79469905  0.61644301  0.18569185    -0.04840
C2516       C  0.80491121  0.60881538  0.19094958     0.07380
C2517       C  0.81022465  0.61649177  0.20107520     0.01180
H2518       H  0.78808249  0.61398060  0.17760930     0.08830
H2519       H  0.81838042  0.61407692  0.20762668     0.07910
N2520       N  0.76876571  0.65952062  0.18911614    -0.35930
N2521       N  0.76927610  0.66921356  0.19794000    -0.28110
C2522       C  0.75997586  0.67829273  0.19505592    -0.03350
C2523       C  0.75336064  0.67406345  0.18385085     0.05260
C2524       C  0.75913290  0.66215715  0.18029883     0.03350
H2525       H  0.75829279  0.68732418  0.20063505     0.08460
H2526       H  0.75654908  0.65585922  0.17198561     0.07290
N2527       N  0.82401733  0.69503593  0.26877469    -0.27100
N2528       N  0.83370495  0.68619719  0.26825246    -0.34950
C2529       C  0.83103431  0.67734613  0.25867653     0.01240
C2530       C  0.81910476  0.68088740  0.25294983     0.07270
C2531       C  0.81489669  0.69212459  0.25953286    -0.05830
H2532       H  0.83732621  0.66901791  0.25610181     0.07940
H2533       H  0.80585714  0.69770747  0.25786476     0.09140
Cu2534     Cu  0.85001786  0.68657941  0.28040669     0.44170
Cu2535     Cu  0.82331331  0.71026016  0.28217191     0.41990
Cu2536     Cu  0.85017178  0.71191378  0.30574272     0.43880
N2537       N  0.86542426  0.68953184  0.29337355    -0.34480
N2538       N  0.86549603  0.69879143  0.30263791    -0.28740
C2539       C  0.87700170  0.69818318  0.30931236    -0.04840
C2540       C  0.88460025  0.68799349  0.30397289     0.07380
C2541       C  0.87687096  0.68274251  0.29385806     0.01180
H2542       H  0.87950639  0.70475087  0.31741683     0.08830
H2543       H  0.87924615  0.67461600  0.28726535     0.07910
N2544       N  0.83385430  0.72416041  0.30620178    -0.35930
N2545       N  0.82414245  0.72365627  0.29739012    -0.28110
C2546       C  0.81504335  0.73292344  0.30030581    -0.03350
C2547       C  0.81926810  0.73952011  0.31152122     0.05260
C2548       C  0.83120241  0.73376293  0.31504687     0.03350
H2549       H  0.80599753  0.73459757  0.29473783     0.08460
H2550       H  0.83750736  0.73634011  0.32336038     0.07290
N2551       N  0.76935763  0.79469831  0.32316743    -0.27100
N2552       N  0.76887088  0.80345964  0.33292065    -0.34950
C2553       C  0.75925145  0.81232189  0.33037078     0.01240
C2554       C  0.75344503  0.80888034  0.31845842     0.07270
C2555       C  0.76003665  0.79767961  0.31413331    -0.05830
H2556       H  0.75669355  0.82059086  0.33673953     0.07940
H2557       H  0.75831705  0.79216947  0.30506910     0.09140
Cu2558     Cu  0.78110908  0.80300769  0.34920103     0.44170
Cu2559     Cu  0.78282528  0.77946926  0.32225571     0.41990
Cu2560     Cu  0.80646833  0.77782493  0.34910553     0.43880
N2561       N  0.79420674  0.80006735  0.36453817    -0.34480
N2562       N  0.80350168  0.79082908  0.36449580    -0.28740
C2563       C  0.81030610  0.79139893  0.37592145    -0.04840
C2564       C  0.80502580  0.80154764  0.38360168     0.07380
C2565       C  0.79480154  0.80681314  0.37599611     0.01180
H2566       H  0.81846328  0.78483935  0.37831396     0.08830
H2567       H  0.78821191  0.81492061  0.37846335     0.07910
N2568       N  0.80696395  0.76564941  0.33279785    -0.35930
N2569       N  0.79816012  0.76611511  0.32307542    -0.28110
C2570       C  0.80116579  0.75684919  0.31400616    -0.03350
C2571       C  0.81242577  0.75031324  0.31827544     0.05260
C2572       C  0.81587978  0.75609656  0.33019308     0.03350
H2573       H  0.79562478  0.75512403  0.30495855     0.08460
H2574       H  0.82418851  0.75356397  0.33653016     0.07290
N2575       N  0.76953790  0.87700227  0.46885793    -0.27100
N2576       N  0.77682664  0.86607110  0.46959260    -0.34950
C2577       C  0.77873901  0.86286868  0.48237108     0.01240
C2578       C  0.77241711  0.87216191  0.49023427     0.07270
C2579       C  0.76663879  0.88102375  0.48135292    -0.05830
H2580       H  0.78442519  0.85435673  0.48565971     0.07940
H2581       H  0.76082233  0.88973193  0.48377945     0.09140
Cu2582     Cu  0.78433735  0.85543308  0.45372156     0.44170
Cu2583     Cu  0.76403102  0.88561363  0.45065204     0.41990
Cu2584     Cu  0.77407399  0.86587492  0.42170215     0.43880
N2585       N  0.79070804  0.84586783  0.43673494    -0.34480
N2586       N  0.78675961  0.84968992  0.42482606    -0.28740
C2587       C  0.79217728  0.84155507  0.41573340    -0.04840
C2588       C  0.79992344  0.83207577  0.42221505     0.07380
C2589       C  0.79876264  0.83520982  0.43557006     0.01180
H2590       H  0.79055176  0.84252242  0.40515806     0.08830
H2591       H  0.80313878  0.82994557  0.44385723     0.07910
N2592       N  0.76258882  0.88318469  0.42060155    -0.35930
N2593       N  0.75950823  0.89074703  0.43092389    -0.28110
C2594       C  0.75279058  0.90151941  0.42652835    -0.03350
C2595       C  0.75137930  0.90056288  0.41285122     0.05260
C2596       C  0.75765299  0.88878643  0.40948261     0.03350
H2597       H  0.74894654  0.90931392  0.43285057     0.08460
H2598       H  0.75876107  0.88469471  0.39960811     0.07290
N2599       N  0.88095429  0.76587175  0.46843426    -0.27100
N2600       N  0.87001139  0.77314405  0.46913451    -0.34950
C2601       C  0.86676226  0.77505866  0.48189605     0.01240
C2602       C  0.87603261  0.76875886  0.48980740     0.07270
C2603       C  0.88493652  0.76298601  0.48095748    -0.05830
H2604       H  0.85823202  0.78073615  0.48514022     0.07940
H2605       H  0.89364646  0.75718555  0.48342829     0.09140
Cu2606     Cu  0.85940935  0.78065234  0.45325393     0.44170
Cu2607     Cu  0.88959175  0.76041605  0.45018459     0.41990
Cu2608     Cu  0.86978880  0.77063199  0.42120776     0.43880
N2609       N  0.84977686  0.78710880  0.43635293    -0.34480
N2610       N  0.85356144  0.78325812  0.42440798    -0.28740
C2611       C  0.84535674  0.78871057  0.41538424    -0.04840
C2612       C  0.83587820  0.79637380  0.42196150     0.07380
C2613       C  0.83908380  0.79512689  0.43529024     0.01180
H2614       H  0.84626776  0.78715779  0.40479520     0.08830
H2615       H  0.83383972  0.79940907  0.44363020     0.07910
N2616       N  0.88713181  0.75917899  0.42007924    -0.35930
N2617       N  0.89471322  0.75603478  0.43038142    -0.28110
C2618       C  0.90549159  0.74936344  0.42592134    -0.03350
C2619       C  0.90451736  0.74804742  0.41222867     0.05260
C2620       C  0.89272317  0.75432995  0.40892325     0.03350
H2621       H  0.91330229  0.74547883  0.43220885     0.08460
H2622       H  0.88860714  0.75549990  0.39906111     0.07290
C2623       C  0.80703793  0.82065645  0.41603545     0.03320
C2624       C  0.80301056  0.81638976  0.40340619    -0.12830
C2625       C  0.80941070  0.80586929  0.39695339     0.00820
C2626       C  0.82004213  0.79951194  0.40327882    -0.11350
C2627       C  0.82437244  0.80346589  0.41590612     0.03320
C2628       C  0.81768568  0.81400565  0.42238410    -0.10770
H2629       H  0.79469177  0.82120611  0.39866076     0.08910
H2630       H  0.82489690  0.79127912  0.39843849     0.06440
H2631       H  0.82096253  0.81723086  0.43210351     0.06290
N2632       N  0.72605183  0.96606164  0.38068422    -0.27100
N2633       N  0.71874307  0.96682805  0.36977343    -0.34950
C2634       C  0.71677762  0.97961856  0.36663412     0.01240
C2635       C  0.72308368  0.98746619  0.37594382     0.07270
C2636       C  0.72890926  0.97855875  0.38475358    -0.05830
H2637       H  0.71107451  0.98292484  0.35814335     0.07940
H2638       H  0.73473896  0.98097017  0.39345271     0.09140
Cu2639     Cu  0.71129047  0.95101079  0.35903167     0.44170
Cu2640     Cu  0.73166531  0.94780463  0.38918657     0.41990
Cu2641     Cu  0.72172007  0.91900208  0.36922926     0.43880
N2642       N  0.70503276  0.93406189  0.34934278    -0.34480
N2643       N  0.70904345  0.92214956  0.35309760    -0.28740
C2644       C  0.70370164  0.91306356  0.34491520    -0.04840
C2645       C  0.69594450  0.91955670  0.33546605     0.07380
C2646       C  0.69701171  0.93290975  0.33866892     0.01180
H2647       H  0.70538967  0.90248934  0.34583364     0.08830
H2648       H  0.69259398  0.94120436  0.33344717     0.07910
N2649       N  0.73322117  0.91776513  0.38646779    -0.35930
N2650       N  0.73628403  0.92801714  0.39413275    -0.28110
C2651       C  0.74303254  0.92350243  0.40483483    -0.03350
C2652       C  0.74447706  0.90982765  0.40370922     0.05260
C2653       C  0.73818951  0.90658599  0.39191888     0.03350
H2654       H  0.74686815  0.92974026  0.41269911     0.08460
H2655       H  0.73708645  0.89675409  0.38771653     0.07290
N2656       N  0.61493450  0.96603491  0.26966872    -0.27100
N2657       N  0.62587045  0.96672778  0.27694612    -0.34950
C2658       C  0.62908171  0.97949225  0.27891635     0.01240
C2659       C  0.61979026  0.98739765  0.27264479     0.07270
C2660       C  0.61091616  0.97855691  0.26683338    -0.05830
H2661       H  0.63760336  0.98273921  0.28460249     0.07940
H2662       H  0.60220686  0.98102928  0.26103477     0.09140
Cu2663     Cu  0.63653498  0.95084933  0.28435718     0.44170
Cu2664     Cu  0.60634703  0.94783429  0.26409549     0.41990
Cu2665     Cu  0.62628514  0.91889397  0.27403730     0.43880
N2666       N  0.64622518  0.93391634  0.29063266    -0.34480
N2667       N  0.64247197  0.92199864  0.28666230    -0.28740
C2668       C  0.65068259  0.91292569  0.29201565    -0.04840
C2669       C  0.66013782  0.91944483  0.29974000     0.07380
C2670       C  0.65691429  0.93278960  0.29863546     0.01180
H2671       H  0.64978095  0.90234703  0.29036153     0.08830
H2672       H  0.66213221  0.94109792  0.30301422     0.07910
N2673       N  0.60898460  0.91778204  0.26260316    -0.35930
N2674       N  0.60134518  0.92806928  0.25954733    -0.28110
C2675       C  0.59060658  0.92360889  0.25282967    -0.03350
C2676       C  0.59167999  0.90993377  0.25140089     0.05260
C2677       C  0.60347532  0.90663245  0.25766054     0.03350
H2678       H  0.58276097  0.92988557  0.24899424     0.08460
H2679       H  0.60764988  0.89678121  0.25875017     0.07290
C2680       C  0.68887884  0.91339336  0.32402954     0.03320
C2681       C  0.69290849  0.90076245  0.31975147    -0.12830
C2682       C  0.68652873  0.89433521  0.30920937     0.00820
C2683       C  0.67592684  0.90069848  0.30283692    -0.11350
C2684       C  0.67160712  0.91333038  0.30681372     0.03320
C2685       C  0.67826091  0.91976956  0.31738000    -0.10770
H2686       H  0.70120559  0.89599198  0.32457912     0.08910
H2687       H  0.67108831  0.89588529  0.29458135     0.06440
H2688       H  0.67498046  0.92948484  0.32062625     0.06290
N2689       N  0.52682998  0.76616099  0.11522370    -0.27100
N2690       N  0.52598642  0.77337824  0.12617959    -0.34950
C2691       C  0.51317653  0.77517433  0.12930557     0.01240
C2692       C  0.50542936  0.76884254  0.11992873     0.07270
C2693       C  0.51438908  0.76318549  0.11110368    -0.05830
H2694       H  0.50979272  0.78078305  0.13782058     0.07940
H2695       H  0.51205772  0.75740249  0.10235464     0.09140
Cu2696     Cu  0.54172494  0.78092406  0.13696140     0.44170
Cu2697     Cu  0.54504683  0.76082011  0.10668890     0.41990
Cu2698     Cu  0.57378907  0.77074588  0.12668153     0.43880
N2699       N  0.55865293  0.78724288  0.14663846    -0.34480
N2700       N  0.57058243  0.78331300  0.14286416    -0.28740
C2701       C  0.57965098  0.78868356  0.15104772    -0.04840
C2702       C  0.57312679  0.79637767  0.16051076     0.07380
C2703       C  0.55977558  0.79524339  0.15732330     0.01180
H2704       H  0.59023519  0.78706809  0.15011650     0.08830
H2705       H  0.55146627  0.79960353  0.16255916     0.07910
N2706       N  0.57503345  0.75942866  0.10934275    -0.35930
N2707       N  0.56476906  0.75639202  0.10168382    -0.28110
C2708       C  0.56923880  0.74976652  0.09091096    -0.03350
C2709       C  0.58290813  0.74837978  0.09197486     0.05260
C2710       C  0.58620118  0.75456222  0.10380314     0.03350
H2711       H  0.56297147  0.74596639  0.08305018     0.08460
H2712       H  0.59605026  0.75565210  0.10797654     0.07290
N2713       N  0.52657959  0.87717307  0.22617915    -0.27100
N2714       N  0.52598411  0.86622605  0.21892379    -0.34950
C2715       C  0.51326413  0.86290293  0.21691099     0.01240
C2716       C  0.50528122  0.87213649  0.22312978     0.07270
C2717       C  0.51402161  0.88109575  0.22895857    -0.05830
H2718       H  0.51010726  0.85435321  0.21122091     0.07940
H2719       H  0.51145934  0.88979472  0.23472334     0.09140
Cu2720     Cu  0.54188973  0.85570270  0.21155627     0.44170
Cu2721     Cu  0.54470835  0.88587535  0.23177217     0.41990
Cu2722     Cu  0.57376638  0.86608548  0.22182718     0.43880
N2723       N  0.55878904  0.84612100  0.20523914    -0.34480
N2724       N  0.57070441  0.84991443  0.20917600    -0.28740
C2725       C  0.57977498  0.84173503  0.20379300    -0.04840
C2726       C  0.57323987  0.83226623  0.19609720     0.07380
C2727       C  0.55990021  0.83544368  0.19724005     0.01180
H2728       H  0.59035748  0.84265444  0.20542307     0.08830
H2729       H  0.55158505  0.83019377  0.19290989     0.07910
N2730       N  0.57477302  0.88337662  0.23328261    -0.35930
N2731       N  0.56444399  0.89095790  0.23633029    -0.28110
C2732       C  0.56884131  0.90171579  0.24305133    -0.03350
C2733       C  0.58252038  0.90071907  0.24449254     0.05260
C2734       C  0.58588996  0.88894556  0.23823736     0.03350
H2735       H  0.56251969  0.90952389  0.24687709     0.08460
H2736       H  0.59576552  0.88483016  0.23715413     0.07290
C2737       C  0.57926873  0.80345790  0.17193883     0.03320
C2738       C  0.59188924  0.79943142  0.17626096    -0.12830
C2739       C  0.59829853  0.80584880  0.18679121     0.00820
C2740       C  0.59193617  0.81646466  0.19310385    -0.11350
C2741       C  0.57932750  0.82077983  0.18907582     0.03320
C2742       C  0.57289054  0.81410014  0.17852816    -0.10770
H2743       H  0.59665981  0.79111320  0.17147900     0.08910
H2744       H  0.59673504  0.82132658  0.20135101     0.06440
H2745       H  0.56318275  0.81738125  0.17524633     0.06290
N2746       N  0.61546228  0.72348496  0.02672036    -0.27100
N2747       N  0.62642024  0.71623641  0.02602698    -0.34950
C2748       C  0.62966181  0.71431797  0.01326941     0.01240
C2749       C  0.62036639  0.72059473  0.00537432     0.07270
C2750       C  0.61145891  0.72635420  0.01420997    -0.05830
H2751       H  0.63820466  0.70866243  0.01002061     0.07940
H2752       H  0.60273765  0.73213975  0.01174332     0.09140
Cu2753     Cu  0.63707070  0.70879098  0.04189168     0.44170
Cu2754     Cu  0.60682154  0.72898379  0.04489257     0.41990
Cu2755     Cu  0.62671984  0.71903394  0.07380682     0.43880
N2756       N  0.64669746  0.70247986  0.05883788    -0.34480
N2757       N  0.64288598  0.70642602  0.07073868    -0.28740
C2758       C  0.65104044  0.70105802  0.07984099    -0.04840
C2759       C  0.66052800  0.69335083  0.07336025     0.07380
C2760       C  0.65738201  0.69447450  0.06000565     0.01180
H2761       H  0.65007666  0.70269345  0.09041279     0.08830
H2762       H  0.66264726  0.69010816  0.05172292     0.07910
N2763       N  0.60943287  0.73042762  0.07491593    -0.35930
N2764       N  0.60179729  0.73348578  0.06463455    -0.28110
C2765       C  0.59104077  0.74016694  0.06909627    -0.03350
C2766       C  0.59210880  0.74156339  0.08276409     0.05260
C2767       C  0.60390826  0.73532699  0.08606639     0.03350
H2768       H  0.58318278  0.74398847  0.06282856     0.08460
H2769       H  0.60807022  0.73421094  0.09591549     0.07290
N2770       N  0.72645816  0.61253516  0.02683534    -0.27100
N2771       N  0.71920585  0.62348873  0.02608275    -0.34950
C2772       C  0.71730789  0.62668492  0.01330162     0.01240
C2773       C  0.72360347  0.61736373  0.00545293     0.07270
C2774       C  0.72934991  0.60849220  0.01434599    -0.05830
H2775       H  0.71165333  0.63521407  0.01000227     0.07940
H2776       H  0.73514059  0.59976405  0.01193087     0.09140
Cu2777     Cu  0.71174050  0.63417112  0.04192861     0.44170
Cu2778     Cu  0.73192630  0.60392876  0.04505945     0.41990
Cu2779     Cu  0.72198261  0.62378099  0.07394564     0.43880
N2780       N  0.70543908  0.64378490  0.05889538    -0.34480
N2781       N  0.70938204  0.63997410  0.07080726    -0.28740
C2782       C  0.70400748  0.64813496  0.07989443    -0.04840
C2783       C  0.69629786  0.65762102  0.07339855     0.07380
C2784       C  0.69742941  0.65446939  0.06004780     0.01180
H2785       H  0.70563472  0.64717395  0.09047004     0.08830
H2786       H  0.69306044  0.65973076  0.05175520     0.07910
N2787       N  0.73335042  0.60644631  0.07509799    -0.35930
N2788       N  0.73640325  0.59882837  0.06481015    -0.28110
C2789       C  0.74305089  0.58803823  0.06926685    -0.03350
C2790       C  0.74443609  0.58905402  0.08294335     0.05260
C2791       C  0.73822627  0.60087271  0.08624952     0.03350
H2792       H  0.74686482  0.58019333  0.06298931     0.08460
H2793       H  0.73711815  0.60501556  0.09610303     0.07290
C2794       C  0.67195435  0.68627657  0.07952735     0.03320
C2795       C  0.67620457  0.69025363  0.09217393    -0.12830
C2796       C  0.68675796  0.68386351  0.09858908     0.00820
C2797       C  0.69316231  0.67330560  0.09219966    -0.11350
C2798       C  0.68920410  0.66904405  0.07954884     0.03320
C2799       C  0.67863017  0.67570631  0.07312369    -0.10770
H2800       H  0.67135164  0.69852056  0.09695923     0.08910
H2801       H  0.70142499  0.66845664  0.09700706     0.06440
H2802       H  0.67539892  0.67246734  0.06339393     0.06290
N2803       N  0.96988339  0.72300876  0.37942750    -0.27100
N2804       N  0.97051117  0.71574231  0.36848843    -0.34950
C2805       C  0.98324745  0.71375327  0.36518497     0.01240
C2806       C  0.99122039  0.71999690  0.37441518     0.07270
C2807       C  0.98244131  0.72581510  0.38335516    -0.05830
H2808       H  0.98642676  0.70806787  0.35664158     0.07940
H2809       H  0.98498181  0.73159870  0.39204503     0.09140
Cu2810     Cu  0.95461424  0.70834104  0.35792445     0.44170
Cu2811     Cu  0.95169182  0.72859316  0.38812668     0.41990
Cu2812     Cu  0.92269354  0.71859032  0.36836554     0.43880
N2813       N  0.93767905  0.70203604  0.34834531    -0.34480
N2814       N  0.92576880  0.70596472  0.35217241    -0.28740
C2815       C  0.91667866  0.70059888  0.34400690    -0.04840
C2816       C  0.92318424  0.69292243  0.33450434     0.07380
C2817       C  0.93653633  0.69405721  0.33765273     0.01180
H2818       H  0.90609899  0.70222650  0.34496226     0.08830
H2819       H  0.94483665  0.68973059  0.33237562     0.07910
N2820       N  0.92159544  0.73004222  0.38565762    -0.35930
N2821       N  0.93190492  0.73312082  0.39324888    -0.28110
C2822       C  0.92744946  0.73981049  0.40401075    -0.03350
C2823       C  0.91375376  0.74120298  0.40300467     0.05260
C2824       C  0.91044419  0.73494585  0.39121594     0.03350
H2825       H  0.93373941  0.74364517  0.41183597     0.08460
H2826       H  0.90058074  0.73381844  0.38708631     0.07290
N2827       N  0.93169382  0.59846454  0.25865587    -0.27100
N2828       N  0.92143224  0.60614279  0.26167278    -0.34950
C2829       C  0.91026206  0.60061193  0.25680850     0.01240
C2830       C  0.91353777  0.58876892  0.25064238     0.07270
C2831       C  0.92720914  0.58768362  0.25204026    -0.05830
H2832       H  0.90041885  0.60480445  0.25788909     0.07940
H2833       H  0.93346575  0.57980275  0.24825612     0.09140
Cu2834     Cu  0.92262866  0.62351196  0.27295383     0.44170
Cu2835     Cu  0.95143357  0.60346824  0.26310856     0.41990
Cu2836     Cu  0.95461430  0.63379943  0.28317940     0.43880
N2837       N  0.92575952  0.63973636  0.28549024    -0.34480
N2838       N  0.93767962  0.64350817  0.28944380    -0.28740
C2839       C  0.93654130  0.65419457  0.29744171    -0.04840
C2840       C  0.92318761  0.65738948  0.29855426     0.07380
C2841       C  0.91667814  0.64792761  0.29084128     0.01180
H2842       H  0.94484352  0.65941615  0.30183122     0.08830
H2843       H  0.90609632  0.64699210  0.28921519     0.07910
N2844       N  0.97040892  0.62303932  0.27571439    -0.35930
N2845       N  0.96962852  0.61206484  0.26851205    -0.28110
C2846       C  0.98210088  0.60798573  0.26559445    -0.03350
C2847       C  0.99101000  0.61685811  0.27127235     0.05260
C2848       C  0.98320085  0.62621671  0.27755567     0.03350
H2849       H  0.98448931  0.59923671  0.25983037     0.08460
H2850       H  0.98653088  0.63475796  0.28315880     0.07290
C2851       C  0.91703950  0.66879448  0.30568547     0.03320
C2852       C  0.92346230  0.67538314  0.31629987    -0.12830
C2853       C  0.91704631  0.68591353  0.32303258     0.00820
C2854       C  0.90440405  0.68992911  0.31879518    -0.11350
C2855       C  0.89798750  0.68361910  0.30821268     0.03320
C2856       C  0.90438085  0.67309773  0.30174566    -0.10770
H2857       H  0.93319412  0.67211411  0.31952063     0.08910
H2858       H  0.89961655  0.69816410  0.32369357     0.06440
H2859       H  0.89956891  0.66831095  0.29345646     0.06290
N2860       N  0.76926258  0.52365732  0.11558632    -0.27100
N2861       N  0.77655625  0.52293209  0.12650763    -0.34950
C2862       C  0.77846399  0.51015853  0.12973864     0.01240
C2863       C  0.77213431  0.50228006  0.12047535     0.07270
C2864       C  0.76635471  0.51114828  0.11159813    -0.05830
H2865       H  0.78415189  0.50688626  0.13825273     0.07940
H2866       H  0.76052943  0.50870291  0.10290562     0.09140
Cu2867     Cu  0.78408344  0.53877890  0.13711544     0.44170
Cu2868     Cu  0.76376649  0.54187860  0.10696345     0.41990
Cu2869     Cu  0.77386758  0.57077939  0.12674029     0.43880
N2870       N  0.79046813  0.55572737  0.14667790    -0.34480
N2871       N  0.78653805  0.56764705  0.14286564    -0.28740
C2872       C  0.79195834  0.57673585  0.15099058    -0.04840
C2873       C  0.79968003  0.57022843  0.16045671     0.07380
C2874       C  0.79851220  0.55687130  0.15732954     0.01180
H2875       H  0.79034466  0.58731789  0.15002544     0.08830
H2876       H  0.80287055  0.54857054  0.16259076     0.07910
N2877       N  0.76241023  0.57193985  0.10948013    -0.35930
N2878       N  0.75929819  0.56165199  0.10188333    -0.28110
C2879       C  0.75260963  0.56612794  0.09113065    -0.03350
C2880       C  0.75126064  0.57981597  0.09215272     0.05260
C2881       C  0.75753390  0.58310851  0.10393362     0.03350
H2882       H  0.74874955  0.55985737  0.08330466     0.08460
H2883       H  0.75869108  0.59296459  0.10806496     0.07290
N2884       N  0.88064874  0.52355161  0.22610228    -0.27100
N2885       N  0.86965110  0.52285197  0.21891987    -0.34950
C2886       C  0.86637014  0.51008596  0.21708492     0.01240
C2887       C  0.87568190  0.50219872  0.22335136     0.07270
C2888       C  0.88463801  0.51104282  0.22901418    -0.05830
H2889       H  0.85778927  0.50682594  0.21149603     0.07940
H2890       H  0.89338451  0.50858355  0.23476211     0.09140
Cu2891     Cu  0.85900202  0.53872587  0.21147152     0.44170
Cu2892     Cu  0.88937576  0.54171756  0.23146436     0.41990
Cu2893     Cu  0.86949844  0.57067130  0.22156464     0.43880
N2894       N  0.84937560  0.55569265  0.20518559    -0.34480
N2895       N  0.85322483  0.56760341  0.20908287    -0.28740
C2896       C  0.84504778  0.57670950  0.20374194    -0.04840
C2897       C  0.83551477  0.57022001  0.19609937     0.07380
C2898       C  0.83865178  0.55685779  0.19723772     0.01180
H2899       H  0.84603050  0.58728974  0.20534136     0.08830
H2900       H  0.83335756  0.54856789  0.19291566     0.07910
N2901       N  0.88688566  0.57175860  0.23282382    -0.35930
N2902       N  0.89450471  0.56145428  0.23586342    -0.28110
C2903       C  0.90531332  0.56589193  0.24247377    -0.03350
C2904       C  0.90430278  0.57957300  0.24384400     0.05260
C2905       C  0.89247875  0.58290454  0.23766561     0.03350
H2906       H  0.91315903  0.55959775  0.24628053     0.08460
H2907       H  0.88833599  0.59276827  0.23656797     0.07290
C2908       C  0.82406928  0.57638336  0.18904952     0.03320
C2909       C  0.81981729  0.58904105  0.19301733    -0.12830
C2910       C  0.80923649  0.59543878  0.18664686     0.00820
C2911       C  0.80281910  0.58902802  0.17612057    -0.11350
C2912       C  0.80678770  0.57637846  0.17186024     0.03320
C2913       C  0.81737777  0.56996158  0.17850333    -0.10770
H2914       H  0.82468993  0.59384537  0.20126020     0.08910
H2915       H  0.79453647  0.59382067  0.17129197     0.06440
H2916       H  0.82061015  0.56022731  0.17526545     0.06290
N2917       N  0.19758052  0.32034286  0.22677903    -0.27100
N2918       N  0.18878064  0.33007069  0.22725475    -0.34950
C2919       C  0.17991449  0.32747418  0.23684513     0.01240
C2920       C  0.18340788  0.31555407  0.24262977     0.07270
C2921       C  0.19462939  0.31127760  0.23606220    -0.05830
H2922       H  0.17161303  0.33381123  0.23939644     0.07940
H2923       H  0.20018176  0.30222791  0.23777447     0.09140
Cu2924     Cu  0.18925778  0.34634401  0.21501909     0.44170
Cu2925     Cu  0.21283639  0.31948569  0.21340818     0.41990
Cu2926     Cu  0.21459148  0.34624317  0.18974587     0.43880
N2927       N  0.19231410  0.36166024  0.20194124    -0.34480
N2928       N  0.20158243  0.36162402  0.19268834    -0.28740
C2929       C  0.20104439  0.37306895  0.18590752    -0.04840
C2930       C  0.19088764  0.38074850  0.19116503     0.07380
C2931       C  0.18558299  0.37313016  0.20134498     0.01180
H2932       H  0.20762229  0.37547192  0.17777917     0.08830
H2933       H  0.17745901  0.37558908  0.20790832     0.07910
N2934       N  0.22677087  0.32993951  0.18937247    -0.35930
N2935       N  0.22626076  0.32024036  0.19819557    -0.28110
C2936       C  0.23553174  0.31114247  0.19527815    -0.03350
C2937       C  0.24211747  0.31537565  0.18405363     0.05260
C2938       C  0.23636255  0.32729694  0.18052814     0.03350
H2939       H  0.23721721  0.30209916  0.20084660     0.08460
H2940       H  0.23893020  0.33360448  0.17221368     0.07290
N2941       N  0.32314421  0.19435754  0.22642547    -0.27100
N2942       N  0.33283336  0.18551362  0.22686422    -0.34950
C2943       C  0.33020100  0.17660495  0.23640315     0.01240
C2944       C  0.31829768  0.18011392  0.24219295     0.07270
C2945       C  0.31406390  0.19139160  0.23568501    -0.05830
H2946       H  0.33650374  0.16826166  0.23891394     0.07940
H2947       H  0.30503530  0.19696863  0.23741851     0.09140
Cu2948     Cu  0.34910918  0.18595712  0.21466048     0.44170
Cu2949     Cu  0.32237238  0.20967105  0.21312265     0.41990
Cu2950     Cu  0.34916958  0.21138308  0.18948311     0.43880
N2951       N  0.36447195  0.18895827  0.20164910    -0.34480
N2952       N  0.36449947  0.19826691  0.19242895    -0.28740
C2953       C  0.37596856  0.19770592  0.18569942    -0.04840
C2954       C  0.38359576  0.18749291  0.19095616     0.07380
C2955       C  0.37591884  0.18217884  0.20108137     0.01180
H2956       H  0.37843124  0.20432272  0.17761723     0.08830
H2957       H  0.37833299  0.17402230  0.20763185     0.07910
N2958       N  0.33288886  0.22363685  0.18912547    -0.35930
N2959       N  0.32319396  0.22312544  0.19794748    -0.28110
C2960       C  0.31411551  0.23242629  0.19506191    -0.03350
C2961       C  0.31834739  0.23904252  0.18385793     0.05260
C2962       C  0.33025438  0.23327031  0.18030830     0.03350
H2963       H  0.30508260  0.23410916  0.20063917     0.08460
H2964       H  0.33655437  0.23585468  0.17199661     0.07290
N2965       N  0.19771357  0.22304492  0.32316836    -0.27100
N2966       N  0.18895246  0.22353181  0.33292203    -0.34950
C2967       C  0.18009079  0.23315199  0.33037296     0.01240
C2968       C  0.18353235  0.23895883  0.31846075     0.07270
C2969       C  0.19473256  0.23236663  0.31413487    -0.05830
H2970       H  0.17182204  0.23571015  0.33674223     0.07940
H2971       H  0.20024257  0.23408632  0.30507043     0.09140
Cu2972     Cu  0.18940328  0.21129289  0.34920220     0.44170
Cu2973     Cu  0.21294213  0.20957621  0.32225458     0.41990
Cu2974     Cu  0.21458375  0.18593317  0.34910447     0.43880
N2975       N  0.19234237  0.19819383  0.36453868    -0.34480
N2976       N  0.20158028  0.18889856  0.36449547    -0.28740
C2977       C  0.20101002  0.18209286  0.37592041    -0.04840
C2978       C  0.19086132  0.18737256  0.38360111     0.07380
C2979       C  0.18559632  0.19759793  0.37599653     0.01180
H2980       H  0.20756929  0.17393525  0.37831219     0.08830
H2981       H  0.17748886  0.20418745  0.37846427     0.07910
N2982       N  0.22675898  0.18543595  0.33279665    -0.35930
N2983       N  0.22629481  0.19423953  0.32307391    -0.28110
C2984       C  0.23556044  0.19123180  0.31400470    -0.03350
C2985       C  0.24209434  0.17997070  0.31827450     0.05260
C2986       C  0.23631021  0.17651833  0.33019227     0.03350
H2987       H  0.23728669  0.19677199  0.30495678     0.08460
H2988       H  0.23884107  0.16820946  0.33652964     0.07290
N2989       N  0.17179560  0.29458831  0.26926028    -0.27100
N2990       N  0.16211957  0.30344694  0.26882527    -0.34950
C2991       C  0.16474430  0.31232969  0.25925286     0.01240
C2992       C  0.17662940  0.30878494  0.25343819     0.07270
C2993       C  0.18085568  0.29751635  0.25996948    -0.05830
H2994       H  0.15844855  0.32067545  0.25673183     0.07940
H2995       H  0.18986599  0.29191376  0.25822480     0.09140
Cu2996     Cu  0.14587702  0.30300762  0.28109238     0.44170
Cu2997     Cu  0.17257607  0.27927978  0.28258408     0.41990
Cu2998     Cu  0.14584705  0.27751814  0.30629024     0.43880
N2999       N  0.13054863  0.29999392  0.29415975    -0.34480
N3000       N  0.13051892  0.29067984  0.30337785    -0.28740
C3001       C  0.11905771  0.29126995  0.31012925    -0.04840
C3002       C  0.11144231  0.30150444  0.30488949     0.07380
C3003       C  0.11911811  0.30679908  0.29475260     0.01180
H3004       H  0.11658788  0.28466069  0.31821603     0.08830
H3005       H  0.11671585  0.31496437  0.28820903     0.07910
N3006       N  0.16214233  0.26524205  0.30658214    -0.35930
N3007       N  0.17181068  0.26577345  0.29773096    -0.28110
C3008       C  0.18089829  0.25645930  0.30056303    -0.03350
C3009       C  0.17670735  0.24981016  0.31176566     0.05260
C3010       C  0.16480928  0.25558232  0.31536613     0.03350
H3011       H  0.18991278  0.25478966  0.29495212     0.08460
H3012       H  0.15853666  0.25297755  0.32369202     0.07290
N3013       N  0.29737279  0.16836730  0.26877748    -0.27100
N3014       N  0.30621075  0.15867899  0.26825373    -0.34950
C3015       C  0.31506198  0.16135130  0.25867760     0.01240
C3016       C  0.31152122  0.17328240  0.25295268     0.07270
C3017       C  0.30028441  0.17748940  0.25953710    -0.05830
H3018       H  0.32338997  0.15505960  0.25610132     0.07940
H3019       H  0.29470190  0.18652943  0.25787098     0.09140
Cu3020     Cu  0.30582418  0.14236343  0.28040825     0.44170
Cu3021     Cu  0.28214843  0.16907173  0.28217464     0.41990
Cu3022     Cu  0.28048649  0.14221469  0.30574576     0.43880
N3023       N  0.30286566  0.12695653  0.29337703    -0.34480
N3024       N  0.29360566  0.12688694  0.30264144    -0.28740
C3025       C  0.29421014  0.11538056  0.30931564    -0.04840
C3026       C  0.30439745  0.10777877  0.30397626     0.07380
C3027       C  0.30965111  0.11550739  0.29386161     0.01180
H3028       H  0.28764136  0.11287706  0.31742000     0.08830
H3029       H  0.31777664  0.11312965  0.28726825     0.07910
N3030       N  0.26824312  0.15853521  0.30620342    -0.35930
N3031       N  0.26875040  0.16824661  0.29739144    -0.28110
C3032       C  0.25948513  0.17734813  0.30030593    -0.03350
C3033       C  0.25288630  0.17312546  0.31152099     0.05260
C3034       C  0.25864031  0.16118984  0.31504759     0.03350
H3035       H  0.25781386  0.18639407  0.29473756     0.08460
H3036       H  0.25606082  0.15488594  0.32336117     0.07290
N3037       N  0.26873821  0.29439720  0.17241410    -0.27100
N3038       N  0.26825533  0.30323632  0.16272569    -0.34950
C3039       C  0.25867576  0.31210731  0.16536638     0.01240
C3040       C  0.25290490  0.30858005  0.17727008     0.07270
C3041       C  0.25946700  0.29732989  0.18149631    -0.05830
H3042       H  0.25612392  0.32043954  0.15906822     0.07940
H3043       H  0.25776358  0.29175024  0.19052448     0.09140
Cu3044     Cu  0.28045107  0.30285545  0.14642646     0.44170
Cu3045     Cu  0.28211171  0.27912839  0.17320740     0.41990
Cu3046     Cu  0.30570989  0.27753631  0.14639791     0.43880
N3047       N  0.29349599  0.29989185  0.13106556    -0.34480
N3048       N  0.30274724  0.29060928  0.13106304    -0.28740
C3049       C  0.30950092  0.29116392  0.11961264    -0.04840
C3050       C  0.30423145  0.30134713  0.11196378     0.07380
C3051       C  0.29406956  0.30665217  0.11961229     0.01180
H3052       H  0.31760835  0.28456318  0.11717718     0.08830
H3053       H  0.28749943  0.31478786  0.11717396     0.07910
N3054       N  0.30616268  0.26527779  0.16264493    -0.35930
N3055       N  0.29735957  0.26573471  0.17235797    -0.28110
C3056       C  0.30031721  0.25642729  0.18140360    -0.03350
C3057       C  0.31154777  0.24986931  0.17712512     0.05260
C3058       C  0.31503630  0.25568073  0.16522919     0.03350
H3059       H  0.29476710  0.25469461  0.19044101     0.08460
H3060       H  0.32334055  0.25314306  0.15889797     0.07290
N3061       N  0.11522371  0.46580124  0.22617539    -0.27100
N3062       N  0.12617130  0.46639960  0.21892107    -0.34950
C3063       C  0.12949164  0.47912013  0.21690983     0.01240
C3064       C  0.12025524  0.48709940  0.22312879     0.07270
C3065       C  0.11129752  0.47835722  0.22895593    -0.05830
H3066       H  0.13804112  0.48227971  0.21122041     0.07940
H3067       H  0.10259697  0.48091671  0.23471997     0.09140
Cu3068     Cu  0.13669785  0.45049766  0.21155278     0.44170
Cu3069     Cu  0.10652479  0.44767359  0.23176558     0.41990
Cu3070     Cu  0.12631989  0.41861980  0.22182390     0.43880
N3071       N  0.14628153  0.43360056  0.20523572    -0.34480
N3072       N  0.14248986  0.42168475  0.20917270    -0.28740
C3073       C  0.15067056  0.41261555  0.20378976    -0.04840
C3074       C  0.16013833  0.41915226  0.19609404     0.07380
C3075       C  0.15695905  0.43249122  0.19723663     0.01180
H3076       H  0.14975285  0.40203315  0.20541997     0.08830
H3077       H  0.16220795  0.44080710  0.19290660     0.07910
N3078       N  0.10902840  0.41761194  0.23327795    -0.35930
N3079       N  0.10144586  0.42794039  0.23632381    -0.28110
C3080       C  0.09068794  0.42354403  0.24304466    -0.03350
C3081       C  0.09168575  0.40986599  0.24448752     0.05260
C3082       C  0.10345984  0.40649551  0.23823380     0.03350
H3083       H  0.08287927  0.42986581  0.24686919     0.08460
H3084       H  0.10757580  0.39662020  0.23715248     0.07290
N3085       N  0.22623983  0.46556217  0.11522001    -0.27100
N3086       N  0.21902237  0.46640471  0.12617584    -0.34950
C3087       C  0.21722474  0.47921389  0.12930203     0.01240
C3088       C  0.22355578  0.48696147  0.11992521     0.07270
C3089       C  0.22921405  0.47800310  0.11109999    -0.05830
H3090       H  0.21161521  0.48259680  0.13781698     0.07940
H3091       H  0.23499668  0.48033531  0.10235076     0.09140
Cu3092     Cu  0.21147759  0.45066666  0.13695684     0.44170
Cu3093     Cu  0.23158208  0.44734712  0.10668569     0.41990
Cu3094     Cu  0.22165840  0.41860433  0.12667896     0.43880
N3095       N  0.20515928  0.43373990  0.14663383    -0.34480
N3096       N  0.20908995  0.42181061  0.14286033    -0.28740
C3097       C  0.20371977  0.41274241  0.15104444    -0.04840
C3098       C  0.19602534  0.41926703  0.16050690     0.07380
C3099       C  0.19715876  0.43261778  0.15731865     0.01180
H3100       H  0.20533612  0.40215848  0.15011435     0.08830
H3101       H  0.19279858  0.44092718  0.16255421     0.07910
N3102       N  0.23297655  0.41736173  0.10934093    -0.35930
N3103       N  0.23601215  0.42762643  0.10168203    -0.28110
C3104       C  0.24263880  0.42315810  0.09090952    -0.03350
C3105       C  0.24402730  0.40948935  0.09197357     0.05260
C3106       C  0.23784483  0.40619492  0.10380152     0.03350
H3107       H  0.24643848  0.42942607  0.08304899     0.08460
H3108       H  0.23675624  0.39634579  0.10797475     0.07290
C3109       C  0.18894699  0.41312610  0.17193620     0.03320
C3110       C  0.19297663  0.40050766  0.17626048    -0.12830
C3111       C  0.18656100  0.39409899  0.18679202     0.00820
C3112       C  0.17594417  0.40045999  0.19310417    -0.11350
C3113       C  0.17162596  0.41306661  0.18907375     0.03320
C3114       C  0.17830362  0.41950319  0.17852463    -0.10770
H3115       H  0.20129593  0.39573819  0.17147899     0.08910
H3116       H  0.17108370  0.39566165  0.20135268     0.06440
H3117       H  0.17502008  0.42920942  0.17524101     0.06290
N3118       N  0.26893368  0.37694543  0.02672111    -0.27100
N3119       N  0.27618365  0.36598847  0.02602791    -0.34950
C3120       C  0.27810341  0.36274776  0.01327038     0.01240
C3121       C  0.27182599  0.37204274  0.00537535     0.07270
C3122       C  0.26606478  0.38094905  0.01421081    -0.05830
H3123       H  0.28376008  0.35420580  0.01002160     0.07940
H3124       H  0.26027820  0.38966952  0.01174415     0.09140
Cu3125     Cu  0.28362874  0.35533786  0.04189269     0.44170
Cu3126     Cu  0.26343191  0.38558442  0.04489253     0.41990
Cu3127     Cu  0.27338019  0.36568476  0.07380624     0.43880
N3128       N  0.28993823  0.34571036  0.05883917    -0.34480
N3129       N  0.28598983  0.34952070  0.07073955    -0.28740
C3130       C  0.29135705  0.34136645  0.07984243    -0.04840
C3131       C  0.29906612  0.33188010  0.07336249     0.07380
C3132       C  0.29794438  0.33502659  0.06000777     0.01180
H3133       H  0.28971987  0.34232971  0.09041401     0.08830
H3134       H  0.30231273  0.32976234  0.05172547     0.07910
N3135       N  0.26198457  0.38296945  0.07491492    -0.35930
N3136       N  0.25892682  0.39060562  0.06463390    -0.28110
C3137       C  0.25224358  0.40136058  0.06909567    -0.03350
C3138       C  0.25084553  0.40029064  0.08276308     0.05260
C3139       C  0.25708304  0.38849203  0.08606527     0.03350
H3140       H  0.24842190  0.40921867  0.06282832     0.08460
H3141       H  0.25819843  0.38432928  0.09591412     0.07290
N3142       N  0.37989007  0.26596161  0.02683667    -0.27100
N3143       N  0.36893650  0.27321406  0.02608362    -0.34950
C3144       C  0.36574137  0.27511284  0.01330228     0.01240
C3145       C  0.37506311  0.26881770  0.00545371     0.07270
C3146       C  0.38393394  0.26307068  0.01434729    -0.05830
H3147       H  0.35721227  0.28076749  0.01000264     0.07940
H3148       H  0.39266219  0.25727986  0.01193243     0.09140
Cu3149     Cu  0.35825201  0.28067805  0.04192917     0.44170
Cu3150     Cu  0.38849501  0.26049150  0.04506175     0.41990
Cu3151     Cu  0.36863993  0.27043288  0.07394597     0.43880
N3152       N  0.34863653  0.28697691  0.05889631    -0.34480
N3153       N  0.35244705  0.28303284  0.07080789    -0.28740
C3154       C  0.34428555  0.28840550  0.07989554    -0.04840
C3155       C  0.33479910  0.29611501  0.07340039     0.07380
C3156       C  0.33795127  0.29498551  0.06004947     0.01180
H3157       H  0.34524643  0.28677693  0.09047095     0.08830
H3158       H  0.33268983  0.29935513  0.05175729     0.07910
N3159       N  0.38597342  0.25906443  0.07510021    -0.35930
N3160       N  0.39359294  0.25601201  0.06481333    -0.28110
C3161       C  0.40438182  0.24936321  0.06927170    -0.03350
C3162       C  0.40336324  0.24797683  0.08294809     0.05260
C3163       C  0.39154445  0.25418734  0.08625245     0.03350
H3164       H  0.41222786  0.24554931  0.06299533     0.08460
H3165       H  0.38739976  0.25529514  0.09610527     0.07290
C3166       C  0.30614135  0.32045486  0.07953025     0.03320
C3167       C  0.31671223  0.31378031  0.07312651    -0.12830
C3168       C  0.32337560  0.30320722  0.07955145     0.00820
C3169       C  0.31911482  0.29924857  0.09220258    -0.11350
C3170       C  0.30855633  0.30565177  0.09859236     0.03320
C3171       C  0.30216490  0.31620443  0.09217714    -0.10770
H3172       H  0.31995079  0.31701188  0.06339667     0.08910
H3173       H  0.32396481  0.29098659  0.09700997     0.06440
H3174       H  0.29389743  0.32105655  0.09696257     0.06290
N3175       N  0.46875579  0.22315222  0.11559557    -0.27100
N3176       N  0.46948229  0.21585806  0.12651651    -0.34950
C3177       C  0.48225655  0.21395179  0.12974629     0.01240
C3178       C  0.49013375  0.22028298  0.12048249     0.07270
C3179       C  0.48126421  0.22606189  0.11160640    -0.05830
H3180       H  0.48553021  0.20826376  0.13825967     0.07940
H3181       H  0.48370818  0.23188775  0.10291387     0.09140
Cu3182     Cu  0.45363568  0.20832798  0.13712482     0.44170
Cu3183     Cu  0.45053444  0.22864666  0.10697351     0.41990
Cu3184     Cu  0.42163319  0.21854250  0.12674870     0.43880
N3185       N  0.43668640  0.20194050  0.14668660    -0.34480
N3186       N  0.42476643  0.20587029  0.14287435    -0.28740
C3187       C  0.41567768  0.20044814  0.15099864    -0.04840
C3188       C  0.42218498  0.19272532  0.16046425     0.07380
C3189       C  0.43554237  0.19389469  0.15733734     0.01180
H3190       H  0.40509531  0.20206113  0.15003338     0.08830
H3191       H  0.44384319  0.18953602  0.16259824     0.07910
N3192       N  0.42047305  0.23000129  0.10948782    -0.35930
N3193       N  0.43076182  0.23311396  0.10189222    -0.28110
C3194       C  0.42628752  0.23980280  0.09113912    -0.03350
C3195       C  0.41259936  0.24115155  0.09215911     0.05260
C3196       C  0.40930505  0.23487781  0.10393965     0.03350
H3197       H  0.43255942  0.24366328  0.08331419     0.08460
H3198       H  0.39944812  0.23372051  0.10806957     0.07290
N3199       N  0.46884804  0.11174444  0.22611153    -0.27100
N3200       N  0.46954638  0.12274241  0.21892950    -0.34950
C3201       C  0.48231198  0.12602556  0.21709419     0.01240
C3202       C  0.49020133  0.11671512  0.22335982     0.07270
C3203       C  0.48135815  0.10775723  0.22902276    -0.05830
H3204       H  0.48557029  0.13460696  0.21150532     0.07940
H3205       H  0.48381908  0.09901092  0.23476999     0.09140
Cu3206     Cu  0.45367148  0.13338917  0.21148071     0.44170
Cu3207     Cu  0.45067977  0.10301528  0.23147195     0.41990
Cu3208     Cu  0.42172274  0.12288979  0.22156500     0.43880
N3209       N  0.43670671  0.14301605  0.20519076    -0.34480
N3210       N  0.42479440  0.13916694  0.20908424    -0.28740
C3211       C  0.41569091  0.14734610  0.20374126    -0.04840
C3212       C  0.42218381  0.15687985  0.19610144     0.07380
C3213       C  0.43554525  0.15374104  0.19724376     0.01180
H3214       H  0.40510983  0.14636477  0.20533768     0.08830
H3215       H  0.44383723  0.15903529  0.19292540     0.07910
N3216       N  0.42063516  0.10549955  0.23282462    -0.35930
N3217       N  0.43094035  0.09788214  0.23586639    -0.28110
C3218       C  0.42650249  0.08707197  0.24247508    -0.03350
C3219       C  0.41282028  0.08807903  0.24384260     0.05260
C3220       C  0.40948885  0.09990355  0.23766393     0.03350
H3221       H  0.43279728  0.07922737  0.24628294     0.08460
H3222       H  0.39962446  0.10404475  0.23656454     0.07290
C3223       C  0.41602432  0.16832890  0.18905266     0.03320
C3224       C  0.40336719  0.17258267  0.19302049    -0.12830
C3225       C  0.39697207  0.18316656  0.18665262     0.00820
C3226       C  0.40338481  0.18958553  0.17612824    -0.11350
C3227       C  0.41603402  0.18561562  0.17186710     0.03320
C3228       C  0.42244858  0.17502239  0.17850839    -0.10770
H3229       H  0.39856120  0.16770876  0.20126161     0.08910
H3230       H  0.39859395  0.19787037  0.17130182     0.06440
H3231       H  0.43218274  0.17178908  0.17527042     0.06290
N3232       N  0.39392542  0.06068317  0.25865114    -0.27100
N3233       N  0.38624896  0.07094530  0.26167149    -0.34950
C3234       C  0.39178090  0.08211611  0.25680876     0.01240
C3235       C  0.40362334  0.07884147  0.25063999     0.07270
C3236       C  0.40470655  0.06516902  0.25203504    -0.05830
H3237       H  0.38758965  0.09195930  0.25789239     0.07940
H3238       H  0.41258653  0.05891258  0.24824860     0.09140
Cu3239     Cu  0.36887953  0.06974984  0.27295585     0.44170
Cu3240     Cu  0.38891777  0.04094007  0.26310181     0.41990
Cu3241     Cu  0.35858639  0.03776433  0.28317440     0.43880
N3242       N  0.35265251  0.06661882  0.28549201    -0.34480
N3243       N  0.34887884  0.05469821  0.28944211    -0.28740
C3244       C  0.33819116  0.05583506  0.29743892    -0.04840
C3245       C  0.33499678  0.06918844  0.29855491     0.07380
C3246       C  0.34446086  0.07569925  0.29084468     0.01180
H3247       H  0.33296812  0.04753199  0.30182506     0.08830
H3248       H  0.34539724  0.08628113  0.28922112     0.07910
N3249       N  0.36934248  0.02196664  0.27571062    -0.35930
N3250       N  0.38031716  0.02274343  0.26850771    -0.28110
C3251       C  0.38439210  0.01026868  0.26559247    -0.03350
C3252       C  0.37551679  0.00136231  0.27127234     0.05260
C3253       C  0.36616111  0.00917595  0.27755429     0.03350
H3254       H  0.39314029  0.00787643  0.25982831     0.08460
H3255       H  0.35761870  0.00584960  0.28315835     0.07290
N3256       N  0.26935027  0.02247615  0.37941546    -0.27100
N3257       N  0.27661740  0.02184533  0.36847659    -0.34950
C3258       C  0.27860153  0.00910750  0.36517455     0.01240
C3259       C  0.27235397  0.00113672  0.37440503     0.07270
C3260       C  0.26653875  0.00991929  0.38334372    -0.05830
H3261       H  0.28428596  0.00592525  0.35663148     0.07940
H3262       H  0.26075335  0.00738168  0.39203342     0.09140
Cu3263     Cu  0.28402481  0.03774200  0.35790990     0.44170
Cu3264     Cu  0.26377062  0.04067018  0.38811578     0.41990
Cu3265     Cu  0.27377928  0.06966505  0.36835599     0.43880
N3266       N  0.29033128  0.05468079  0.34833080    -0.34480
N3267       N  0.28640287  0.06659052  0.35216000    -0.28740
C3268       C  0.29176938  0.07568254  0.34399644    -0.04840
C3269       C  0.29944686  0.06917980  0.33449271     0.07380
C3270       C  0.29831126  0.05582657  0.33763859     0.01180
H3271       H  0.29014287  0.08626187  0.34495479     0.08830
H3272       H  0.30263955  0.04752772  0.33236065     0.07910
N3273       N  0.26232957  0.07076735  0.38565028    -0.35930
N3274       N  0.25924829  0.06045872  0.39324161    -0.28110
C3275       C  0.25256107  0.06491646  0.40400454    -0.03350
C3276       C  0.25117292  0.07861294  0.40299911     0.05260
C3277       C  0.25743023  0.08192016  0.39120946     0.03350
H3278       H  0.24872495  0.05862772  0.41183006     0.08460
H3279       H  0.25856050  0.09178304  0.38707968     0.07290
C3280       C  0.32358944  0.07533494  0.30568532     0.03320
C3281       C  0.31929012  0.08799605  0.30174971    -0.12830
C3282       C  0.30876672  0.09438857  0.30821440     0.00820
C3283       C  0.30245028  0.08796810  0.31879160    -0.11350
C3284       C  0.30646138  0.07532246  0.32302525     0.03320
C3285       C  0.31699423  0.06890811  0.31629388    -0.10770
H3286       H  0.32408196  0.09281099  0.29346513     0.08910
H3287       H  0.29421374  0.09275534  0.32368844     0.06440
H3288       H  0.32026000  0.05917430  0.31951132     0.06290
N3289       N  0.02637230  0.37746693  0.26967591    -0.27100
N3290       N  0.02567820  0.36653172  0.27695426    -0.34950
C3291       C  0.01291313  0.36332241  0.27892459     0.01240
C3292       C  0.00500933  0.37261456  0.27265195     0.07270
C3293       C  0.01385110  0.38148684  0.26683997    -0.05830
H3294       H  0.00966478  0.35480168  0.28461107     0.07940
H3295       H  0.01138014  0.39019569  0.26104033     0.09140
Cu3296     Cu  0.04155577  0.35586519  0.28436531     0.44170
Cu3297     Cu  0.04457187  0.38605193  0.26410031     0.41990
Cu3298     Cu  0.07350919  0.36611120  0.27403749     0.43880
N3299       N  0.05849025  0.34617478  0.29063761    -0.34480
N3300       N  0.07040702  0.34992769  0.28666391    -0.28740
C3301       C  0.07948190  0.34171849  0.29201541    -0.04840
C3302       C  0.07296522  0.33226404  0.29974210     0.07380
C3303       C  0.05961967  0.33548658  0.29864108     0.01180
H3304       H  0.09006032  0.34262086  0.29035847     0.08830
H3305       H  0.05131272  0.33026886  0.30302295     0.07910
N3306       N  0.07462192  0.38340829  0.26260221    -0.35930
N3307       N  0.06433559  0.39104924  0.25954768    -0.28110
C3308       C  0.06879660  0.40178584  0.25282788    -0.03350
C3309       C  0.08247106  0.40070887  0.25139680     0.05260
C3310       C  0.08577171  0.38891428  0.25765707     0.03350
H3311       H  0.06252085  0.40963241  0.24899302     0.08460
H3312       H  0.09562257  0.38473807  0.25874569     0.07290
N3313       N  0.02635357  0.26636486  0.38068986    -0.27100
N3314       N  0.02558900  0.27367368  0.36977901    -0.34950
C3315       C  0.01279914  0.27564088  0.36663824     0.01240
C3316       C  0.00494976  0.26933589  0.37594706     0.07270
C3317       C  0.01385548  0.26350907  0.38475791    -0.05830
H3318       H  0.00949462  0.28134427  0.35814704     0.07940
H3319       H  0.01144225  0.25767958  0.39345666     0.09140
Cu3320     Cu  0.04140722  0.28112377  0.35903860     0.44170
Cu3321     Cu  0.04460998  0.26074917  0.38919314     0.41990
Cu3322     Cu  0.07341411  0.27069162  0.36923531     0.43880
N3323       N  0.05835583  0.28737909  0.34934954    -0.34480
N3324       N  0.07026800  0.28336771  0.35310409    -0.28740
C3325       C  0.07935422  0.28870824  0.34492111    -0.04840
C3326       C  0.07286103  0.29646502  0.33547195     0.07380
C3327       C  0.05950800  0.29539915  0.33867523     0.01180
H3328       H  0.08992856  0.28701934  0.34583914     0.08830
H3329       H  0.05121336  0.29981694  0.33345353     0.07910
N3330       N  0.07464983  0.25919076  0.38647315    -0.35930
N3331       N  0.06439778  0.25612869  0.39413864    -0.28110
C3332       C  0.06891276  0.24937970  0.40484033    -0.03350
C3333       C  0.08258756  0.24793414  0.40371358     0.05260
C3334       C  0.08582898  0.25422157  0.39192325     0.03350
H3335       H  0.06267512  0.24554440  0.41270509     0.08460
H3336       H  0.09566089  0.25532402  0.38772010     0.07290
C3337       C  0.07902361  0.30352935  0.32403482     0.03320
C3338       C  0.09165484  0.29950066  0.31975683    -0.12830
C3339       C  0.09808043  0.30587920  0.30921294     0.00820
C3340       C  0.09171503  0.31647878  0.30283878    -0.11350
C3341       C  0.07908266  0.32079726  0.30681624     0.03320
C3342       C  0.07264551  0.31414494  0.31738424    -0.10770
H3343       H  0.09642670  0.29120544  0.32458592     0.08910
H3344       H  0.09652678  0.32131617  0.29458165     0.06440
H3345       H  0.06292997  0.31742475  0.32063091     0.06290
N3346       N  0.22652239  0.11143097  0.46843172    -0.27100
N3347       N  0.21925356  0.12237620  0.46913099    -0.34950
C3348       C  0.21734063  0.12562776  0.48189232     0.01240
C3349       C  0.22363787  0.11635670  0.48980498     0.07270
C3350       C  0.22940749  0.10744974  0.48095564    -0.05830
H3351       H  0.21166600  0.13416014  0.48513550     0.07940
H3352       H  0.23520524  0.09873839  0.48342743     0.09140
Cu3353     Cu  0.21174761  0.13297814  0.45324888     0.44170
Cu3354     Cu  0.23197373  0.10278933  0.45018120     0.41990
Cu3355     Cu  0.22176048  0.12259220  0.42120152     0.43880
N3356       N  0.20529226  0.14261159  0.43634767    -0.34480
N3357       N  0.20914026  0.13882550  0.42440225    -0.28740
C3358       C  0.20368917  0.14703220  0.41537915    -0.04840
C3359       C  0.19602947  0.15651317  0.42195735     0.07380
C3360       C  0.19727730  0.15330710  0.43528589     0.01180
H3361       H  0.20524017  0.14612089  0.40478986     0.08830
H3362       H  0.19299782  0.15855250  0.44362641     0.07910
N3363       N  0.23320734  0.10524371  0.42007396    -0.35930
N3364       N  0.23635049  0.09766270  0.43037689    -0.28110
C3365       C  0.24301742  0.08688120  0.42591706    -0.03350
C3366       C  0.24433190  0.08785262  0.41222371     0.05260
C3367       C  0.23805286  0.09964881  0.40891798     0.03350
H3368       H  0.24690042  0.07907025  0.43220510     0.08460
H3369       H  0.23688314  0.10376403  0.39905546     0.07290
N3370       N  0.11541691  0.22287483  0.46885877    -0.27100
N3371       N  0.12634714  0.21558460  0.46959320    -0.34950
C3372       C  0.12955003  0.21367272  0.48237157     0.01240
C3373       C  0.12025807  0.21999650  0.49023478     0.07270
C3374       C  0.11139650  0.22577543  0.48135369    -0.05830
H3375       H  0.13806136  0.20798541  0.48566013     0.07940
H3376       H  0.10268910  0.23159321  0.48378033     0.09140
Cu3377     Cu  0.13698281  0.20807076  0.45372203     0.44170
Cu3378     Cu  0.10680498  0.22838125  0.45065364     0.41990
Cu3379     Cu  0.12654008  0.21833321  0.42170261     0.43880
N3380       N  0.14654564  0.20169647  0.43673533    -0.34480
N3381       N  0.14272340  0.20564463  0.42482640    -0.28740
C3382       C  0.15085667  0.20022449  0.41573367    -0.04840
C3383       C  0.16033503  0.19247696  0.42221530     0.07380
C3384       C  0.15720205  0.19363960  0.43557042     0.01180
H3385       H  0.14988900  0.20184929  0.40515824     0.08830
H3386       H  0.16246612  0.18926325  0.44385757     0.07910
N3387       N  0.10923118  0.22982066  0.42060308    -0.35930
N3388       N  0.10167030  0.23290279  0.43092612    -0.28110
C3389       C  0.09089796  0.23962114  0.42653170    -0.03350
C3390       C  0.09185281  0.24103130  0.41285447     0.05260
C3391       C  0.10362839  0.23475632  0.40948458     0.03350
H3392       H  0.08310460  0.24346645  0.43285481     0.08460
H3393       H  0.10771870  0.23364724  0.39960956     0.07290
C3394       C  0.17175306  0.18536031  0.41603527     0.03320
C3395       C  0.17602066  0.18938829  0.40340653    -0.12830
C3396       C  0.18653919  0.18298628  0.39695236     0.00820
C3397       C  0.19289387  0.17235201  0.40327596    -0.11350
C3398       C  0.18893958  0.16802133  0.41590322     0.03320
C3399       C  0.17840162  0.17471022  0.42238256    -0.10770
H3400       H  0.17120655  0.19770914  0.39866263     0.08910
H3401       H  0.20112491  0.16749524  0.39843428     0.06440
H3402       H  0.17517592  0.17143323  0.43210183     0.06290
N3403       N  0.32403820  0.79377617  0.22533686    -0.27100
N3404       N  0.33370767  0.80262560  0.22578557    -0.34950
C3405       C  0.33106174  0.81153191  0.23530741     0.01240
C3406       C  0.31916151  0.80801564  0.24107301     0.07270
C3407       C  0.31494187  0.79673738  0.23457540    -0.05830
H3408       H  0.33735210  0.81987594  0.23781725     0.07940
H3409       H  0.30591933  0.79115662  0.23630225     0.09140
Cu3410     Cu  0.34995576  0.80220466  0.21363199     0.44170
Cu3411     Cu  0.32334260  0.77848494  0.21204858     0.41990
Cu3412     Cu  0.35016425  0.77684910  0.18841845     0.43880
N3413       N  0.36533745  0.79925426  0.20071492    -0.34480
N3414       N  0.36543400  0.78997397  0.19147774    -0.28740
C3415       C  0.37692696  0.79058656  0.18480662    -0.04840
C3416       C  0.38448316  0.80080787  0.19012943     0.07380
C3417       C  0.37675189  0.80606962  0.20022468     0.01180
H3418       H  0.37944251  0.78400526  0.17671715     0.08830
H3419       H  0.37909411  0.81422371  0.20679266     0.07910
N3420       N  0.33390754  0.76459993  0.18804020    -0.35930
N3421       N  0.32421364  0.76508834  0.19686376    -0.28110
C3422       C  0.31514446  0.75579972  0.19396974    -0.03350
C3423       C  0.31938218  0.74921434  0.18275974     0.05260
C3424       C  0.33128201  0.75498867  0.17920997     0.03350
H3425       H  0.30611305  0.75410829  0.19954535     0.08460
H3426       H  0.33758046  0.75242374  0.17089092     0.07290
N3427       N  0.29837781  0.72260405  0.17123077    -0.27100
N3428       N  0.30718800  0.72306692  0.16152567    -0.34950
C3429       C  0.31607231  0.73263347  0.16412291     0.01240
C3430       C  0.31258296  0.73841870  0.17602151     0.07270
C3431       C  0.30134310  0.73188087  0.18029031    -0.05830
H3432       H  0.32437984  0.73516891  0.15779593     0.07940
H3433       H  0.29578995  0.73360801  0.18932645     0.09140
Cu3434     Cu  0.30674131  0.71088465  0.14526956     0.44170
Cu3435     Cu  0.28311314  0.70925054  0.17205438     0.41990
Cu3436     Cu  0.28147689  0.68562321  0.14526412     0.43880
N3437       N  0.30373573  0.69789137  0.12992947    -0.34480
N3438       N  0.29447526  0.68863154  0.12992697    -0.28740
C3439       C  0.29502617  0.68188955  0.11847674    -0.04840
C3440       C  0.30518845  0.68718473  0.11083811     0.07380
C3441       C  0.31048147  0.69734400  0.11848125     0.01180
H3442       H  0.28845391  0.67376273  0.11605019     0.08830
H3443       H  0.31860954  0.70391646  0.11605916     0.07910
N3444       N  0.26929265  0.68517923  0.16152052    -0.35930
N3445       N  0.26975667  0.69398883  0.17122608    -0.28110
C3446       C  0.26047850  0.69102543  0.18028504    -0.03350
C3447       C  0.25393840  0.67978743  0.17601586     0.05260
C3448       C  0.25972373  0.67629706  0.16411734     0.03350
H3449       H  0.25875239  0.69657833  0.18932140     0.08460
H3450       H  0.25718697  0.66799016  0.15779043     0.07290
N3451       N  0.17261298  0.69415273  0.26757803    -0.27100
N3452       N  0.16295955  0.68528137  0.26713906    -0.34950
C3453       C  0.16562562  0.67640452  0.25758787     0.01240
C3454       C  0.17751299  0.67997413  0.25180833     0.07270
C3455       C  0.18170317  0.69124267  0.25832184    -0.05830
H3456       H  0.15936593  0.66803887  0.25507271     0.07940
H3457       H  0.19071101  0.69684979  0.25660280     0.09140
Cu3458     Cu  0.14671342  0.68564475  0.27937594     0.44170
Cu3459     Cu  0.17339193  0.70941815  0.28085765     0.41990
Cu3460     Cu  0.14675909  0.71103404  0.30457439     0.43880
N3461       N  0.13140951  0.68867759  0.29244534    -0.34480
N3462       N  0.13142746  0.69797587  0.30166699    -0.28740
C3463       C  0.11997664  0.69746243  0.30842495    -0.04840
C3464       C  0.11231072  0.68729167  0.30318461     0.07380
C3465       C  0.11994530  0.68194790  0.29304028     0.01180
H3466       H  0.11755081  0.70408580  0.31650856     0.08830
H3467       H  0.11749182  0.67381277  0.28648924     0.07910
N3468       N  0.16300554  0.72326705  0.30490974    -0.35930
N3469       N  0.17266088  0.72278684  0.29604826    -0.28110
C3470       C  0.18176054  0.73204782  0.29893263    -0.03350
C3471       C  0.17757178  0.73860504  0.31017843     0.05260
C3472       C  0.16567662  0.73284540  0.31375508     0.03350
H3473       H  0.19077515  0.73373805  0.29332886     0.08460
H3474       H  0.15941494  0.73539161  0.32210686     0.07290
N3475       N  0.19857862  0.66832638  0.22533408    -0.27100
N3476       N  0.18973179  0.65865450  0.22578213    -0.34950
C3477       C  0.18082471  0.66129617  0.23530438     0.01240
C3478       C  0.18433761  0.67319626  0.24107123     0.07270
C3479       C  0.19561470  0.67742031  0.23457391    -0.05830
H3480       H  0.17248268  0.65500278  0.23781383     0.07940
H3481       H  0.20119294  0.68644398  0.23630204     0.09140
Cu3482     Cu  0.19015653  0.64240830  0.21362890     0.44170
Cu3483     Cu  0.21387064  0.66902818  0.21204557     0.41990
Cu3484     Cu  0.21551085  0.64220759  0.18841635     0.43880
N3485       N  0.19311085  0.62702902  0.20071248    -0.34480
N3486       N  0.20239105  0.62693523  0.19147517    -0.28740
C3487       C  0.20178056  0.61544341  0.18480274    -0.04840
C3488       C  0.19156055  0.60788534  0.19012500     0.07380
C3489       C  0.18629746  0.61561393  0.20022129     0.01180
H3490       H  0.20836163  0.61293053  0.17671202     0.08830
H3491       H  0.17814315  0.61327012  0.20678884     0.07910
N3492       N  0.22775678  0.65846507  0.18803684    -0.35930
N3493       N  0.22726781  0.66815923  0.19685982    -0.28110
C3494       C  0.23655634  0.67722841  0.19396469    -0.03350
C3495       C  0.24314174  0.67299000  0.18275459     0.05260
C3496       C  0.23736770  0.66109007  0.17920606     0.03350
H3497       H  0.23824808  0.68625982  0.19953971     0.08460
H3498       H  0.23993300  0.65479076  0.17088792     0.07290
N3499       N  0.19862486  0.76513967  0.32175162    -0.27100
N3500       N  0.18980042  0.76469955  0.33144548    -0.34950
C3501       C  0.18090382  0.75515074  0.32883146     0.01240
C3502       C  0.18440029  0.74936228  0.31693599     0.07270
C3503       C  0.19565697  0.75587338  0.31268411    -0.05830
H3504       H  0.17257387  0.75263936  0.33513792     0.07940
H3505       H  0.20121518  0.75414314  0.30365109     0.09140
Cu3506     Cu  0.19020546  0.77690961  0.34769960     0.44170
Cu3507     Cu  0.21389398  0.77845573  0.32092331     0.41990
Cu3508     Cu  0.21543579  0.80214121  0.34770209     0.43880
N3509       N  0.19314618  0.78993634  0.36304656    -0.34480
N3510       N  0.20240634  0.79919693  0.36304775    -0.28740
C3511       C  0.20186553  0.80592886  0.37450956    -0.04840
C3512       C  0.19171341  0.80062572  0.38216360     0.07380
C3513       C  0.18641217  0.79047469  0.37450736     0.01180
H3514       H  0.20846145  0.81403198  0.37695341     0.08830
H3515       H  0.17830887  0.78387800  0.37694899     0.07910
N3516       N  0.22764792  0.80254962  0.33144793    -0.35930
N3517       N  0.22720884  0.79372583  0.32175357    -0.28110
C3518       C  0.23647540  0.79669470  0.31268642    -0.03350
C3519       C  0.24298599  0.80795147  0.31693859     0.05260
C3520       C  0.23719660  0.81144697  0.32883427     0.03350
H3521       H  0.23820622  0.79113697  0.30365334     0.08460
H3522       H  0.23970739  0.81977660  0.33514098     0.07290
N3523       N  0.29819737  0.81973704  0.26757685    -0.27100
N3524       N  0.30706675  0.82939234  0.26713752    -0.34950
C3525       C  0.31594533  0.82672749  0.25758752     0.01240
C3526       C  0.31237945  0.81483898  0.25180870     0.07270
C3527       C  0.30111078  0.81064672  0.25832160    -0.05830
H3528       H  0.32431002  0.83298881  0.25507284     0.07940
H3529       H  0.29550617  0.80163739  0.25660294     0.09140
Cu3530     Cu  0.30670121  0.84563982  0.27937240     0.44170
Cu3531     Cu  0.28293092  0.81895681  0.28085715     0.41990
Cu3532     Cu  0.28131490  0.84559460  0.30457171     0.43880
N3533       N  0.30367144  0.86094524  0.29244068    -0.34480
N3534       N  0.29437382  0.86092739  0.30166323    -0.28740
C3535       C  0.29488834  0.87237837  0.30842069    -0.04840
C3536       C  0.30505905  0.88004446  0.30317920     0.07380
C3537       C  0.31040163  0.87240947  0.29303462     0.01180
H3538       H  0.28826535  0.87480438  0.31650480     0.08830
H3539       H  0.31853631  0.87486318  0.28648259     0.07910
N3540       N  0.26908176  0.82934663  0.30490955    -0.35930
N3541       N  0.26956219  0.81969027  0.29604920    -0.28110
C3542       C  0.26030129  0.81059073  0.29893502    -0.03350
C3543       C  0.25374372  0.81478018  0.31018057     0.05260
C3544       C  0.25950329  0.82667595  0.31375554     0.03350
H3545       H  0.25861126  0.80157570  0.29333232     0.08460
H3546       H  0.25695675  0.83293832  0.32210656     0.07290
N3547       N  0.06535211  0.73249250  0.39254544    -0.27100
N3548       N  0.07560075  0.72946347  0.38486555    -0.34950
C3549       C  0.08679081  0.73428984  0.39039100     0.01240
C3550       C  0.08354707  0.74044637  0.40224132     0.07270
C3551       C  0.06987005  0.73908115  0.40332982    -0.05830
H3552       H  0.09662554  0.73318314  0.38619282     0.07940
H3553       H  0.06363431  0.74286547  0.41122036     0.09140
Cu3554     Cu  0.07433808  0.71819398  0.36752385     0.44170
Cu3555     Cu  0.04558626  0.72805474  0.38752266     0.41990
Cu3556     Cu  0.04226809  0.70797905  0.35723469     0.43880
N3557       N  0.07114766  0.70565553  0.35134731    -0.34480
N3558       N  0.05922615  0.70171633  0.34756163    -0.28740
C3559       C  0.06037245  0.69372559  0.33687535    -0.04840
C3560       C  0.07372850  0.69260886  0.33370728     0.07380
C3561       C  0.08023357  0.70030151  0.34317729     0.01180
H3562       H  0.05207499  0.68935159  0.33163321     0.08830
H3563       H  0.09081397  0.70192352  0.34413061     0.07910
N3564       N  0.02649104  0.71545182  0.36803033    -0.35930
N3565       N  0.02732316  0.72266421  0.37899222    -0.28110
C3566       C  0.01486360  0.72559095  0.38311449    -0.03350
C3567       C  0.00590229  0.71990943  0.37428875     0.05260
C3568       C  0.01367945  0.71361275  0.36490818     0.03350
H3569       H  0.01251620  0.73136252  0.39186587     0.08460
H3570       H  0.01031124  0.70800213  0.35638733     0.07290
N3571       N  0.06487580  0.59811077  0.25812357    -0.27100
N3572       N  0.07515998  0.60575716  0.26112854    -0.34950
C3573       C  0.08631080  0.60022925  0.25622831     0.01240
C3574       C  0.08300658  0.58841690  0.25004517     0.07270
C3575       C  0.06933767  0.58734092  0.25147164    -0.05830
H3576       H  0.09616110  0.60439734  0.25731175     0.07940
H3577       H  0.06307067  0.57946895  0.24769534     0.09140
Cu3578     Cu  0.07408834  0.62305053  0.27246146     0.44170
Cu3579     Cu  0.04513815  0.60313311  0.26266524     0.41990
Cu3580     Cu  0.04223538  0.63341190  0.28277100     0.43880
N3581       N  0.07106747  0.63920494  0.28504625    -0.34480
N3582       N  0.05917119  0.64302380  0.28901320    -0.28740
C3583       C  0.06034550  0.65370364  0.29699899    -0.04840
C3584       C  0.07370432  0.65683447  0.29808911     0.07380
C3585       C  0.08018284  0.64734789  0.29038486     0.01180
H3586       H  0.05206403  0.65897194  0.30137360     0.08830
H3587       H  0.09075668  0.64637517  0.28873078     0.07910
N3588       N  0.02635325  0.62279080  0.27542728    -0.35930
N3589       N  0.02699811  0.61181806  0.26821222    -0.28110
C3590       C  0.01446319  0.60784266  0.26541622    -0.03350
C3591       C  0.00567376  0.61678896  0.27119110     0.05260
C3592       C  0.01361109  0.62607396  0.27739821     0.03350
H3593       H  0.01195025  0.59911657  0.25967239     0.08460
H3594       H  0.01040554  0.63463632  0.28304379     0.07290
C3595       C  0.07988317  0.68551559  0.32230567     0.03320
C3596       C  0.09254064  0.68946034  0.31804238    -0.12830
C3597       C  0.09893330  0.68302995  0.30751105     0.00820
C3598       C  0.09251641  0.67248131  0.30114542    -0.11350
C3599       C  0.07986952  0.66825150  0.30513104     0.03320
C3600       C  0.07345958  0.67493961  0.31567673    -0.10770
H3601       H  0.09735107  0.69772526  0.32286895     0.08910
H3602       H  0.09729972  0.66761385  0.29289209     0.06440
H3603       H  0.06372748  0.67171636  0.31892352     0.06290
N3604       N  0.38079202  0.72278579  0.02606733    -0.27100
N3605       N  0.36985865  0.71551635  0.02534721    -0.34950
C3606       C  0.36662060  0.71361476  0.01258904     0.01240
C3607       C  0.37589666  0.71992452  0.00471908     0.07270
C3608       C  0.38478772  0.72568816  0.01356780    -0.05830
H3609       H  0.35810175  0.70793624  0.00932559     0.07940
H3610       H  0.39349645  0.73148706  0.01111829     0.09140
Cu3611     Cu  0.35926386  0.70798167  0.04115952     0.44170
Cu3612     Cu  0.38941105  0.72822811  0.04426157     0.41990
Cu3613     Cu  0.36960161  0.71807991  0.07315160     0.43880
N3614       N  0.34969859  0.70151795  0.05803917    -0.34480
N3615       N  0.35349094  0.70539808  0.06997022    -0.28740
C3616       C  0.34534784  0.69993597  0.07901549    -0.04840
C3617       C  0.33589471  0.69224518  0.07245969     0.07380
C3618       C  0.33904688  0.69347056  0.05912550     0.01180
H3619       H  0.34628034  0.70151242  0.08960006     0.08830
H3620       H  0.33379265  0.68916535  0.05080213     0.07910
N3621       N  0.38687088  0.72953357  0.07429697    -0.35930
N3622       N  0.39446720  0.73264609  0.06401008    -0.28110
C3623       C  0.40522473  0.73932609  0.06846385    -0.03350
C3624       C  0.40421089  0.74067115  0.08213776     0.05260
C3625       C  0.39242835  0.73440723  0.08545001     0.03350
H3626       H  0.41304337  0.74318949  0.06218481     0.08460
H3627       H  0.38830235  0.73325892  0.09530655     0.07290
N3628       N  0.26959981  0.61159302  0.02606405    -0.27100
N3629       N  0.27686998  0.62252594  0.02534588    -0.34950
C3630       C  0.27877346  0.62576574  0.01258867     0.01240
C3631       C  0.27246428  0.61649131  0.00471711     0.07270
C3632       C  0.26669883  0.60759921  0.01356372    -0.05830
H3633       H  0.28445301  0.63428454  0.00932713     0.07940
H3634       H  0.26089979  0.59889125  0.01111234     0.09140
Cu3635     Cu  0.28440457  0.63311863  0.04115780     0.44170
Cu3636     Cu  0.26415488  0.60297283  0.04425673     0.41990
Cu3637     Cu  0.27430581  0.62278058  0.07314667     0.43880
N3638       N  0.29087011  0.64268212  0.05803607    -0.34480
N3639       N  0.28699028  0.63888857  0.06996678    -0.28740
C3640       C  0.29245267  0.64703037  0.07901249    -0.04840
C3641       C  0.30014280  0.65648440  0.07245710     0.07380
C3642       C  0.29891729  0.65333378  0.05912277     0.01180
H3643       H  0.29087580  0.64609697  0.08959694     0.08830
H3644       H  0.30322137  0.65858948  0.05079963     0.07910
N3645       N  0.26284830  0.60551483  0.07429170    -0.35930
N3646       N  0.25973504  0.59791870  0.06400510    -0.28110
C3647       C  0.25305311  0.58716262  0.06845917    -0.03350
C3648       C  0.25170761  0.58817759  0.08213287     0.05260
C3649       C  0.25797316  0.59995895  0.08544487     0.03350
H3650       H  0.24918914  0.57934415  0.06218059     0.08460
H3651       H  0.25912217  0.60408488  0.09530128     0.07290
C3652       C  0.32443848  0.68517615  0.07854577     0.03320
C3653       C  0.32010850  0.68920891  0.09113787    -0.12830
C3654       C  0.30953540  0.68284237  0.09750905     0.00820
C3655       C  0.30317242  0.67226931  0.09113545    -0.11350
C3656       C  0.30720840  0.66794172  0.07854396     0.03320
C3657       C  0.31780879  0.67457480  0.07214126    -0.10770
H3658       H  0.32491956  0.69750046  0.09591489     0.08910
H3659       H  0.29488096  0.66745599  0.09591048     0.06440
H3660       H  0.32109420  0.67129123  0.06244482     0.06290
N3661       N  0.11561543  0.52314910  0.22565046    -0.27100
N3662       N  0.12659177  0.52231763  0.21845943    -0.34950
C3663       C  0.12975064  0.50951232  0.21667931     0.01240
C3664       C  0.12037215  0.50175569  0.22299562     0.07270
C3665       C  0.11151301  0.51070446  0.22862656    -0.05830
H3666       H  0.13828586  0.50613821  0.21109017     0.07940
H3667       H  0.10275144  0.50836300  0.23438898     0.09140
Cu3668     Cu  0.13733897  0.53807299  0.21092721     0.44170
Cu3669     Cu  0.10703442  0.54135906  0.23094148     0.41990
Cu3670     Cu  0.12701552  0.57013358  0.22103480     0.43880
N3671       N  0.14699000  0.55499590  0.20459319    -0.34480
N3672       N  0.14320786  0.56692918  0.20850034    -0.28740
C3673       C  0.15138288  0.57599223  0.20311068    -0.04840
C3674       C  0.16084270  0.56945376  0.19542600     0.07380
C3675       C  0.15766927  0.55610676  0.19658728     0.01180
H3676       H  0.15044513  0.58657917  0.20470135     0.08830
H3677       H  0.16290826  0.54779199  0.19223920     0.07910
N3678       N  0.10964039  0.57134721  0.23227930    -0.35930
N3679       N  0.10198693  0.56107919  0.23531132    -0.28110
C3680       C  0.09118455  0.56554633  0.24189655    -0.03350
C3681       C  0.09222738  0.57921590  0.24325563     0.05260
C3682       C  0.10406909  0.58251396  0.23710358     0.03350
H3683       H  0.08332300  0.55927780  0.24569226     0.08460
H3684       H  0.10823539  0.59236370  0.23601169     0.07290
N3685       N  0.22669799  0.52292279  0.11474974    -0.27100
N3686       N  0.21942572  0.52230932  0.12568127    -0.34950
C3687       C  0.21743043  0.50958894  0.12900446     0.01240
C3688       C  0.22367733  0.50161806  0.11978840     0.07270
C3689       C  0.22950689  0.51036880  0.11083693    -0.05830
H3690       H  0.21172795  0.50642477  0.13754222     0.07940
H3691       H  0.23528903  0.50781612  0.10214965     0.09140
Cu3692     Cu  0.21198566  0.53816920  0.13618769     0.44170
Cu3693     Cu  0.23226057  0.54107336  0.10606290     0.41990
Cu3694     Cu  0.22216549  0.57005169  0.12582829     0.43880
N3695       N  0.20556126  0.55503404  0.14571552    -0.34480
N3696       N  0.20945798  0.56695411  0.14190304    -0.28740
C3697       C  0.20402458  0.57602162  0.15003386    -0.04840
C3698       C  0.19634780  0.56947734  0.15950281     0.07380
C3699       C  0.19754029  0.55613619  0.15637229     0.01180
H3700       H  0.20562863  0.58660543  0.14909190     0.08830
H3701       H  0.19324733  0.54781863  0.16164889     0.07910
N3702       N  0.23366934  0.57113218  0.10861804    -0.35930
N3703       N  0.23676751  0.56083411  0.10102633    -0.28110
C3704       C  0.24348378  0.56528773  0.09029325    -0.03350
C3705       C  0.24486522  0.57896720  0.09132823     0.05260
C3706       C  0.23858446  0.58228314  0.10309035     0.03350
H3707       H  0.24733703  0.55900703  0.08247178     0.08460
H3708       H  0.23744055  0.59214340  0.10721745     0.07290
C3709       C  0.17225647  0.57557029  0.18831837     0.03320
C3710       C  0.17660597  0.58818311  0.19231054    -0.12830
C3711       C  0.18714670  0.59454772  0.18586465     0.00820
C3712       C  0.19343308  0.58815670  0.17526932    -0.11350
C3713       C  0.18936002  0.57556866  0.17098235     0.03320
C3714       C  0.17881137  0.56916513  0.17768100    -0.10770
H3715       H  0.17184244  0.59297522  0.20062324     0.08910
H3716       H  0.20169393  0.59292000  0.17039774     0.06440
H3717       H  0.17550458  0.55946538  0.17441887     0.06290
N3718       N  0.46946680  0.76569241  0.11475447    -0.27100
N3719       N  0.47007885  0.77296395  0.12568656    -0.34950
C3720       C  0.48279929  0.77496230  0.12900907     0.01240
C3721       C  0.49077191  0.76871824  0.11979222     0.07270
C3722       C  0.48202175  0.76288719  0.11084091    -0.05830
H3723       H  0.48596244  0.78066444  0.13754723     0.07940
H3724       H  0.48457557  0.75710620  0.10215332     0.09140
Cu3725     Cu  0.45421613  0.78039769  0.13619579     0.44170
Cu3726     Cu  0.45131629  0.76012484  0.10606754     0.41990
Cu3727     Cu  0.42233589  0.77020950  0.12583566     0.43880
N3728       N  0.43734818  0.78681387  0.14572659    -0.34480
N3729       N  0.42542926  0.78291388  0.14191362    -0.28740
C3730       C  0.41635964  0.78834277  0.15004539    -0.04840
C3731       C  0.42290096  0.79602029  0.15951566     0.07380
C3732       C  0.43624289  0.79483262  0.15638474     0.01180
H3733       H  0.40577615  0.78673584  0.14910245     0.08830
H3734       H  0.44455899  0.79912828  0.16166137     0.07910
N3735       N  0.42125694  0.75870842  0.10862354    -0.35930
N3736       N  0.43155525  0.75561326  0.10103067    -0.28110
C3737       C  0.42710165  0.74889755  0.09029707    -0.03350
C3738       C  0.41342208  0.74751341  0.09133304     0.05260
C3739       C  0.41010632  0.75379212  0.10309622     0.03350
H3740       H  0.43338240  0.74504666  0.08247438     0.08460
H3741       H  0.40024603  0.75493386  0.10722449     0.07290
N3742       N  0.46922727  0.87676358  0.22565208    -0.27100
N3743       N  0.47006197  0.86578718  0.21846150    -0.34950
C3744       C  0.48286904  0.86263315  0.21668061     0.01240
C3745       C  0.49062355  0.87201466  0.22299600     0.07270
C3746       C  0.48167113  0.88087047  0.22862699    -0.05830
H3747       H  0.48624603  0.85409878  0.21109230     0.07940
H3748       H  0.48400969  0.88963270  0.23438910     0.09140
Cu3749     Cu  0.45430646  0.85503280  0.21093308     0.44170
Cu3750     Cu  0.45101367  0.88533963  0.23094573     0.41990
Cu3751     Cu  0.42224261  0.86535170  0.22104745     0.43880
N3752       N  0.43738103  0.84537636  0.20460607    -0.34480
N3753       N  0.42544789  0.84915686  0.20851613    -0.28740
C3754       C  0.41638426  0.84098013  0.20312973    -0.04840
C3755       C  0.42292144  0.83152073  0.19544356     0.07380
C3756       C  0.43626884  0.83469635  0.19660112     0.01180
H3757       H  0.40579733  0.84191746  0.20472239     0.08830
H3758       H  0.44458307  0.82945919  0.19224966     0.07910
N3759       N  0.42102509  0.88272854  0.23228925    -0.35930
N3760       N  0.43129178  0.89038465  0.23531913    -0.28110
C3761       C  0.42682219  0.90118672  0.24190361    -0.03350
C3762       C  0.41315245  0.90014097  0.24326449     0.05260
C3763       C  0.40985720  0.88829774  0.23711395     0.03350
H3764       H  0.43308911  0.90905032  0.24569740     0.08460
H3765       H  0.40000824  0.88412882  0.23602337     0.07290
C3766       C  0.41680326  0.82010865  0.18833337     0.03320
C3767       C  0.40418779  0.81576093  0.19232135    -0.12830
C3768       C  0.39782281  0.80522190  0.18587233     0.00820
C3769       C  0.40421605  0.79893620  0.17527753    -0.11350
C3770       C  0.41680651  0.80300741  0.17099463     0.03320
C3771       C  0.42320984  0.81355397  0.17769661    -0.10770
H3772       H  0.39939390  0.82052423  0.20063315     0.08910
H3773       H  0.39945254  0.79067739  0.17040329     0.06440
H3774       H  0.43291122  0.81685943  0.17443744     0.06290
N3775       N  0.39425065  0.92749066  0.25813028    -0.27100
N3776       N  0.38660370  0.91720609  0.26113249    -0.34950
C3777       C  0.39213404  0.90605587  0.25623307     0.01240
C3778       C  0.40394857  0.90936086  0.25005323     0.07270
C3779       C  0.40502292  0.92302979  0.25148103    -0.05830
H3780       H  0.38796594  0.89620553  0.25731436     0.07940
H3781       H  0.41289563  0.92929757  0.24770727     0.09140
Cu3782     Cu  0.36930493  0.91827907  0.27246008     0.44170
Cu3783     Cu  0.38922513  0.94722779  0.26267270     0.41990
Cu3784     Cu  0.35893979  0.95013622  0.28277204     0.43880
N3785       N  0.35314453  0.92130022  0.28503986    -0.34480
N3786       N  0.34932464  0.93319584  0.28900824    -0.28740
C3787       C  0.33864290  0.93201877  0.29699221    -0.04840
C3788       C  0.33551170  0.91865931  0.29807960     0.07380
C3789       C  0.34500028  0.91218343  0.29037524     0.01180
H3790       H  0.33337417  0.94029885  0.30136877     0.08830
H3791       H  0.34597430  0.90161013  0.28872011     0.07910
N3792       N  0.36956851  0.96601900  0.27543082    -0.35930
N3793       N  0.38054282  0.96537027  0.26821787    -0.28110
C3794       C  0.38452349  0.97790356  0.26542157    -0.03350
C3795       C  0.37557969  0.98669737  0.27119369     0.05260
C3796       C  0.36629010  0.97876318  0.27739989     0.03350
H3797       H  0.39325185  0.98041261  0.25967907     0.08460
H3798       H  0.35772747  0.98197267  0.28304323     0.07290
N3799       N  0.25982858  0.92699816  0.39252915    -0.27100
N3800       N  0.26285979  0.91674951  0.38484999    -0.34950
C3801       C  0.25803184  0.90555915  0.39037439     0.01240
C3802       C  0.25187212  0.90880194  0.40222365     0.07270
C3803       C  0.25323722  0.92247929  0.40331211    -0.05830
H3804       H  0.25914074  0.89572460  0.38617694     0.07940
H3805       H  0.24945187  0.92871448  0.41120247     0.09140
Cu3806     Cu  0.27413715  0.91801165  0.36751144     0.44170
Cu3807     Cu  0.26427011  0.94676664  0.38750863     0.41990
Cu3808     Cu  0.28435649  0.95008275  0.35722836     0.43880
N3809       N  0.28668222  0.92120365  0.35133815    -0.34480
N3810       N  0.29062227  0.93312564  0.34755487    -0.28740
C3811       C  0.29861626  0.93198107  0.33687048    -0.04840
C3812       C  0.29973473  0.91862567  0.33370065     0.07380
C3813       C  0.29203928  0.91211917  0.34316824     0.01180
H3814       H  0.30299127  0.94027939  0.33163057     0.08830
H3815       H  0.29041710  0.90153887  0.34411978     0.07910
N3816       N  0.27688553  0.96586237  0.36802222    -0.35930
N3817       N  0.26966932  0.96503224  0.37898195    -0.28110
C3818       C  0.26674678  0.97749341  0.38310357    -0.03350
C3819       C  0.27243494  0.98645356  0.37427963     0.05260
C3820       C  0.27873099  0.97867342  0.36490101     0.03350
H3821       H  0.26097343  0.97984298  0.39185334     0.08460
H3822       H  0.28434587  0.98203944  0.35638192     0.07290
C3823       C  0.30683084  0.91247292  0.32229875     0.03320
C3824       C  0.30288911  0.89981471  0.31803570    -0.12830
C3825       C  0.30932045  0.89342289  0.30750446     0.00820
C3826       C  0.31986823  0.89984189  0.30113810    -0.11350
C3827       C  0.32409528  0.91249064  0.30512246     0.03320
C3828       C  0.31740539  0.91889898  0.31566868    -0.10770
H3829       H  0.29462506  0.89500277  0.32286252     0.08910
H3830       H  0.32473692  0.89505863  0.29288517     0.06440
H3831       H  0.32062602  0.92863189  0.31891482     0.06290
N3832       N  0.10263551  0.75515950  0.42956774    -0.27100
N3833       N  0.11023215  0.75822215  0.41926719    -0.34950
C3834       C  0.10462906  0.75339306  0.40812018     0.01240
C3835       C  0.09281503  0.74720175  0.41144484     0.07270
C3836       C  0.09182854  0.74854785  0.42512454    -0.05830
H3837       H  0.10874718  0.75452606  0.39825838     0.07940
H3838       H  0.08398949  0.74473905  0.43141126     0.09140
Cu3839     Cu  0.12756597  0.76955020  0.42037798     0.44170
Cu3840     Cu  0.10777524  0.75958561  0.44930939     0.41990
Cu3841     Cu  0.13804047  0.77970000  0.45236883     0.43880
N3842       N  0.14374819  0.78213369  0.42347893    -0.34480
N3843       N  0.14759775  0.78604165  0.43538449    -0.28740
C3844       C  0.15826427  0.79406109  0.43420847    -0.04840
C3845       C  0.16135897  0.79523644  0.42084799     0.07380
C3846       C  0.15186071  0.78754125  0.41437126     0.01180
H3847       H  0.16354814  0.79841122  0.44248918     0.08830
H3848       H  0.15085433  0.78594855  0.40379592     0.07910
N3849       N  0.12739507  0.77223527  0.46824119    -0.35930
N3850       N  0.11643023  0.76500952  0.46751287    -0.28110
C3851       C  0.11241289  0.76211302  0.48001042    -0.03350
C3852       C  0.12131339  0.76782849  0.48888468     0.05260
C3853       C  0.13062445  0.77411130  0.48101565     0.03350
H3854       H  0.10368227  0.75634055  0.48244380     0.08460
H3855       H  0.13916737  0.77974355  0.48429690     0.07290
N3856       N  0.23716254  0.88971042  0.42955270    -0.27100
N3857       N  0.23409838  0.88211408  0.41925257    -0.34950
C3858       C  0.23892562  0.88771796  0.40810459     0.01240
C3859       C  0.24511720  0.89953258  0.41142805     0.07270
C3860       C  0.24377304  0.90051791  0.42510834    -0.05830
H3861       H  0.23779140  0.88359998  0.39824294     0.07940
H3862       H  0.24758265  0.90835660  0.43139464     0.09140
Cu3863     Cu  0.22277063  0.86477922  0.42036927     0.44170
Cu3864     Cu  0.23273919  0.88456823  0.44929566     0.41990
Cu3865     Cu  0.21262736  0.85430166  0.45236776     0.43880
N3866       N  0.21018972  0.84859505  0.42347644    -0.34480
N3867       N  0.20628478  0.84474425  0.43538288    -0.28740
C3868       C  0.19826776  0.83407559  0.43420801    -0.04840
C3869       C  0.19709097  0.83098081  0.42084764     0.07380
C3870       C  0.20478249  0.84048134  0.41436982     0.01180
H3871       H  0.19392072  0.82878999  0.44248938     0.08830
H3872       H  0.20637349  0.84148813  0.40379424     0.07910
N3873       N  0.22009498  0.86495151  0.46823700    -0.35930
N3874       N  0.22731994  0.87591657  0.46750354    -0.28110
C3875       C  0.23021946  0.87993759  0.47999930    -0.03350
C3876       C  0.22450695  0.87103960  0.48887824     0.05260
C3877       C  0.21822249  0.86172585  0.48101329     0.03350
H3878       H  0.23599205  0.88866913  0.48242840     0.08460
H3879       H  0.21259168  0.85318362  0.48429869     0.07290
C3880       C  0.18997210  0.81959615  0.41466813     0.03320
C3881       C  0.19387512  0.81540482  0.40198124    -0.12830
C3882       C  0.18745218  0.80488450  0.39556234     0.00820
C3883       C  0.17693369  0.79845778  0.40198092    -0.11350
C3884       C  0.17274098  0.80235911  0.41466797     0.03320
C3885       C  0.17943587  0.81289755  0.42110051    -0.10770
H3886       H  0.20211311  0.82027436  0.39716913     0.08910
H3887       H  0.17206701  0.79021828  0.39716864     0.06440
H3888       H  0.17625091  0.81608135  0.43086189     0.06290
loop_ 
_geom_bond_atom_site_label_1 
_geom_bond_atom_site_label_2 
_geom_bond_distance 
_geom_bond_site_symmetry_2 
_ccdc_geom_bond_type 
N1            N2   1.320       .  A
N1            C5   1.340       .  A
N1           Cu9   2.046       .  S
N2            C3   1.341       .  A
N2           Cu8   2.051       .  S
C3            C4   1.378       .  A
C3            H6   1.082       .  S
C4            C5   1.378       .  A
C4          C100   1.455       .  S
C5            H7   1.082       .  S
Cu8          N11   2.052       .  S
Cu9          N19   2.046       .  S
Cu10         N12   2.052       .  S
Cu10         N18   2.051       .  S
N11          N12   1.318       .  A
N11          C15   1.340       .  A
N12          C13   1.340       .  A
C13          C14   1.387       .  A
C13          H16   1.080       .  S
C14          C15   1.387       .  A
C14         C195   1.480       .  S
C15          H17   1.080       .  S
N18          N19   1.321       .  A
N18          C22   1.341       .  A
N19          C20   1.340       .  A
C20          C21   1.378       .  A
C20          H23   1.082       .  S
C21          C22   1.378       .  A
C21          C52   1.455       .  S
C22          H24   1.082       .  S
N25          N26   1.320       .  A
N25          C29   1.340       .  A
N25         Cu33   2.046       .  S
N26          C27   1.341       .  A
N26         Cu32   2.051       .  S
C27          C28   1.378       .  A
C27          H30   1.082       .  S
C28          C29   1.378       .  A
C28         C124   1.455       .  S
C29          H31   1.082       .  S
Cu32         N35   2.052       .  S
Cu33         N43   2.046       .  S
Cu34         N36   2.052       .  S
Cu34         N42   2.051       .  S
N35          N36   1.318       .  A
N35          C39   1.340       .  A
N36          C37   1.340       .  A
C37          C38   1.387       .  A
C37          H40   1.080       .  S
C38          C39   1.387       .  A
C38         C309   1.480       .  S
C39          H41   1.080       .  S
N42          N43   1.321       .  A
N42          C46   1.341       .  A
N43          C44   1.340       .  A
C44          C45   1.378       .  A
C44          H47   1.082       .  S
C45          C46   1.378       .  A
C45          C69   1.455       .  S
C46          H48   1.082       .  S
N49          N50   1.320       .  A
N49          C53   1.340       .  A
N49         Cu57   2.045       .  S
N50          C51   1.341       .  A
N50         Cu56   2.052       .  S
C51          C52   1.379       .  A
C51          H54   1.082       .  S
C52          C53   1.378       .  A
C53          H55   1.082       .  S
Cu56         N59   2.053       .  S
Cu57         N67   2.045       .  S
Cu58         N60   2.053       .  S
Cu58         N66   2.052       .  S
N59          N60   1.319       .  A
N59          C63   1.340       .  A
N60          C61   1.340       .  A
C61          C62   1.387       .  A
C61          H64   1.080       .  S
C62          C63   1.387       .  A
C62         C252   1.481       .  S
C63          H65   1.080       .  S
N66          N67   1.320       .  A
N66          C70   1.341       .  A
N67          C68   1.340       .  A
C68          C69   1.378       .  A
C68          H71   1.082       .  S
C69          C70   1.379       .  A
C70          H72   1.082       .  S
N73          N74   1.320       .  A
N73          C77   1.339       .  A
N73         Cu81   2.044       .  S
N74          C75   1.340       .  A
N74         Cu80   2.050       .  S
C75          C76   1.378       .  A
C75          H78   1.082       .  S
C76          C77   1.377       .  A
C76         C141   1.454       .  S
C77          H79   1.082       .  S
Cu80         N83   2.050       .  S
Cu81         N91   2.044       .  S
Cu82         N84   2.050       .  S
Cu82         N90   2.050       .  S
N83          N84   1.318       .  A
N83          C87   1.340       .  A
N84          C85   1.340       .  A
C85          C86   1.387       .  A
C85          H88   1.080       .  S
C86          C87   1.387       .  A
C86         C482   1.480       .  S
C87          H89   1.080       .  S
N90          N91   1.320       .  A
N90          C94   1.340       .  A
N91          C92   1.339       .  A
C92          C93   1.377       .  A
C92          H95   1.082       .  S
C93          C94   1.378       .  A
C93         C117   1.454       .  S
C94          H96   1.082       .  S
N97          N98   1.320       .  A
N97         C101   1.339       .  A
N97        Cu105   2.045       .  S
N98          C99   1.341       .  A
N98        Cu104   2.052       .  S
C99         C100   1.379       .  A
C99         H102   1.081       .  S
C100        C101   1.378       .  A
C101        H103   1.082       .  S
Cu104       N107   2.053       .  S
Cu105       N115   2.045       .  S
Cu106       N108   2.050       .  S
Cu106       N114   2.049       .  S
N107        N108   1.318       .  A
N107        C111   1.340       .  A
N108        C109   1.340       .  A
C109        C110   1.386       .  A
C109        H112   1.080       .  S
C110        C111   1.387       .  A
C110        C423   1.480       .  S
C111        H113   1.080       .  S
N114        N115   1.320       .  A
N114        C118   1.340       .  A
N115        C116   1.339       .  A
C116        C117   1.378       .  A
C116        H119   1.082       .  S
C117        C118   1.378       .  A
C118        H120   1.082       .  S
N121        N122   1.320       .  A
N121        C125   1.339       .  A
N121       Cu129   2.045       .  S
N122        C123   1.341       .  A
N122       Cu128   2.052       .  S
C123        C124   1.379       .  A
C123        H126   1.082       .  S
C124        C125   1.378       .  A
C125        H127   1.082       .  S
Cu128       N131   2.053       .  S
Cu129       N139   2.045       .  S
Cu130       N132   2.050       .  S
Cu130       N138   2.049       .  S
N131        N132   1.318       .  A
N131        C135   1.340       .  A
N132        C133   1.340       .  A
C133        C134   1.386       .  A
C133        H136   1.080       .  S
C134        C135   1.387       .  A
C134        C366   1.480       .  S
C135        H137   1.080       .  S
N138        N139   1.320       .  A
N138        C142   1.340       .  A
N139        C140   1.339       .  A
C140        C141   1.378       .  A
C140        H143   1.082       .  S
C141        C142   1.378       .  A
C142        H144   1.082       .  S
N145        N146   1.324       .  A
N145        C149   1.353       .  A
N145       Cu153   2.101       .  S
N146        C147   1.340       .  A
N146       Cu152   2.066       .  S
C147        C148   1.380       .  A
C147        H150   1.081       .  S
C148        C149   1.390       .  A
C148       C1429   1.478       .  S
C149        H151   1.081       .  S
Cu152       N155   2.064       .  S
Cu153       N163   2.102       .  S
Cu154       N156   2.091       .  S
Cu154       N162   2.091       .  S
N155        N156   1.320       .  A
N155        C159   1.349       .  A
N156        C157   1.343       .  A
C157        C158   1.393       .  A
C157        H160   1.081       .  S
C158        C159   1.386       .  A
C158        C197   1.489       .  S
C159        H161   1.081       .  S
N162        N163   1.325       .  A
N162        C166   1.347       .  A
N163        C164   1.351       .  A
C164        C165   1.388       .  A
C164        H167   1.082       .  S
C165        C166   1.384       .  A
C165        C393   1.482       .  S
C166        H168   1.082       .  S
N169        N170   1.324       .  A
N169        C173   1.354       .  A
N169       Cu177   2.105       .  S
N170        C171   1.340       .  A
N170       Cu176   2.066       .  S
C171        C172   1.380       .  A
C171        H174   1.081       .  S
C172        C173   1.390       .  A
C172       C1405   1.479       .  S
C173        H175   1.081       .  S
Cu176       N179   2.064       .  S
Cu177       N187   2.106       .  S
Cu178       N180   2.091       .  S
Cu178       N186   2.092       .  S
N179        N180   1.320       .  A
N179        C183   1.349       .  A
N180        C181   1.344       .  A
C181        C182   1.393       .  A
C181        H184   1.081       .  S
C182        C183   1.386       .  A
C182        C193   1.489       .  S
C183        H185   1.081       .  S
N186        N187   1.325       .  A
N186        C190   1.347       .  A
N187        C188   1.352       .  A
C188        C189   1.388       .  A
C188        H191   1.082       .  S
C189        C190   1.384       .  A
C189        C222   1.483       .  S
C190        H192   1.082       .  S
C193        C194   1.402       .  A
C193        C198   1.415       .  A
C194        C195   1.399       .  A
C194        H199   1.078       .  S
C195        C196   1.399       .  A
C196        C197   1.402       .  A
C196        H200   1.078       .  S
C197        C198   1.415       .  A
C198        H201   1.082       .  S
N202        N203   1.324       .  A
N202        C206   1.354       .  A
N202       Cu210   2.104       .  S
N203        C204   1.340       .  A
N203       Cu209   2.066       .  S
C204        C205   1.380       .  A
C204        H207   1.081       .  S
C205        C206   1.390       .  A
C205       C2092   1.479   1_556  S
C206        H208   1.081       .  S
Cu209       N212   2.064       .  S
Cu210       N220   2.105       .  S
Cu211       N213   2.092       .  S
Cu211       N219   2.093       .  S
N212        N213   1.320       .  A
N212        C216   1.349       .  A
N213        C214   1.344       .  A
C214        C215   1.393       .  A
C214        H217   1.081       .  S
C215        C216   1.386       .  A
C215        C254   1.490       .  S
C216        H218   1.081       .  S
N219        N220   1.325       .  A
N219        C223   1.348       .  A
N220        C221   1.352       .  A
C221        C222   1.388       .  A
C221        H224   1.082       .  S
C222        C223   1.385       .  A
C223        H225   1.082       .  S
N226        N227   1.324       .  A
N226        C230   1.354       .  A
N226       Cu234   2.104       .  S
N227        C228   1.340       .  A
N227       Cu233   2.066       .  S
C228        C229   1.380       .  A
C228        H231   1.081       .  S
C229        C230   1.390       .  A
C229       C2116   1.479   1_556  S
C230        H232   1.081       .  S
Cu233       N236   2.064       .  S
Cu234       N244   2.105       .  S
Cu235       N237   2.092       .  S
Cu235       N243   2.093       .  S
N236        N237   1.320       .  A
N236        C240   1.349       .  A
N237        C238   1.344       .  A
C238        C239   1.393       .  A
C238        H241   1.081       .  S
C239        C240   1.386       .  A
C239        C250   1.490       .  S
C240        H242   1.081       .  S
N243        N244   1.325       .  A
N243        C247   1.348       .  A
N244        C245   1.352       .  A
C245        C246   1.388       .  A
C245        H248   1.082       .  S
C246        C247   1.385       .  A
C246        C303   1.483       .  S
C247        H249   1.082       .  S
C250        C251   1.402       .  A
C250        C255   1.415       .  A
C251        C252   1.399       .  A
C251        H256   1.078       .  S
C252        C253   1.399       .  A
C253        C254   1.402       .  A
C253        H257   1.078       .  S
C254        C255   1.415       .  A
C255        H258   1.082       .  S
N259        N260   1.324       .  A
N259        C263   1.353       .  A
N259       Cu267   2.101       .  S
N260        C261   1.340       .  A
N260       Cu266   2.066       .  S
C261        C262   1.380       .  A
C261        H264   1.081       .  S
C262        C263   1.390       .  A
C262        C919   1.478       .  S
C263        H265   1.081       .  S
Cu266       N269   2.064       .  S
Cu267       N277   2.102       .  S
Cu268       N270   2.091       .  S
Cu268       N276   2.091       .  S
N269        N270   1.320       .  A
N269        C273   1.349       .  A
N270        C271   1.343       .  A
C271        C272   1.393       .  A
C271        H274   1.081       .  S
C272        C273   1.386       .  A
C272        C311   1.489       .  S
C273        H275   1.081       .  S
N276        N277   1.325       .  A
N276        C280   1.347       .  A
N277        C278   1.351       .  A
C278        C279   1.388       .  A
C278        H281   1.082       .  S
C279        C280   1.384       .  A
C279        C336   1.482       .  S
C280        H282   1.082       .  S
N283        N284   1.324       .  A
N283        C287   1.354       .  A
N283       Cu291   2.105       .  S
N284        C285   1.340       .  A
N284       Cu290   2.066       .  S
C285        C286   1.380       .  A
C285        H288   1.081       .  S
C286        C287   1.390       .  A
C286        C943   1.479       .  S
C287        H289   1.081       .  S
Cu290       N293   2.064       .  S
Cu291       N301   2.106       .  S
Cu292       N294   2.092       .  S
Cu292       N300   2.092       .  S
N293        N294   1.320       .  A
N293        C297   1.349       .  A
N294        C295   1.344       .  A
C295        C296   1.393       .  A
C295        H298   1.081       .  S
C296        C297   1.386       .  A
C296        C307   1.490       .  S
C297        H299   1.081       .  S
N300        N301   1.325       .  A
N300        C304   1.347       .  A
N301        C302   1.352       .  A
C302        C303   1.388       .  A
C302        H305   1.082       .  S
C303        C304   1.384       .  A
C304        H306   1.082       .  S
C307        C308   1.402       .  A
C307        C312   1.415       .  A
C308        C309   1.399       .  A
C308        H313   1.078       .  S
C309        C310   1.399       .  A
C310        C311   1.402       .  A
C310        H314   1.078       .  S
C311        C312   1.415       .  A
C312        H315   1.082       .  S
N316        N317   1.323       .  A
N316        C320   1.353       .  A
N316       Cu324   2.103       .  S
N317        C318   1.339       .  A
N317       Cu323   2.062       .  S
C318        C319   1.380       .  A
C318        H321   1.081       .  S
C319        C320   1.390       .  A
C319       C1201   1.477   1_545  S
C320        H322   1.081       .  S
Cu323       N326   2.060       .  S
Cu324       N334   2.103       .  S
Cu325       N327   2.089       .  S
Cu325       N333   2.090       .  S
N326        N327   1.319       .  A
N326        C330   1.348       .  A
N327        C328   1.343       .  A
C328        C329   1.393       .  A
C328        H331   1.081       .  S
C329        C330   1.385       .  A
C329        C364   1.488       .  S
C330        H332   1.081       .  S
N333        N334   1.325       .  A
N333        C337   1.347       .  A
N334        C335   1.351       .  A
C335        C336   1.388       .  A
C335        H338   1.082       .  S
C336        C337   1.384       .  A
C337        H339   1.082       .  S
N340        N341   1.324       .  A
N340        C344   1.353       .  A
N340       Cu348   2.101       .  S
N341        C342   1.340       .  A
N341       Cu347   2.067       .  S
C342        C343   1.381       .  A
C342        H345   1.081       .  S
C343        C344   1.389       .  A
C343       C1177   1.478   1_545  S
C344        H346   1.081       .  S
Cu347       N350   2.065       .  S
Cu348       N358   2.102       .  S
Cu349       N351   2.087       .  S
Cu349       N357   2.088       .  S
N350        N351   1.320       .  A
N350        C354   1.349       .  A
N351        C352   1.343       .  A
C352        C353   1.392       .  A
C352        H355   1.081       .  S
C353        C354   1.386       .  A
C353        C368   1.489       .  S
C354        H356   1.081       .  S
N357        N358   1.325       .  A
N357        C361   1.347       .  A
N358        C359   1.351       .  A
C359        C360   1.388       .  A
C359        H362   1.082       .  S
C360        C361   1.384       .  A
C360        C450   1.481       .  S
C361        H363   1.082       .  S
C364        C365   1.401       .  A
C364        C369   1.414       .  A
C365        C366   1.399       .  A
C365        H370   1.078       .  S
C366        C367   1.399       .  A
C367        C368   1.402       .  A
C367        H371   1.078       .  S
C368        C369   1.414       .  A
C369        H372   1.082       .  S
N373        N374   1.323       .  A
N373        C377   1.353       .  A
N373       Cu381   2.103       .  S
N374        C375   1.339       .  A
N374       Cu380   2.062       .  S
C375        C376   1.379       .  A
C375        H378   1.081       .  S
C376        C377   1.390       .  A
C376        C691   1.477   1_655  S
C377        H379   1.081       .  S
Cu380       N383   2.060       .  S
Cu381       N391   2.103       .  S
Cu382       N384   2.089       .  S
Cu382       N390   2.089       .  S
N383        N384   1.319       .  A
N383        C387   1.348       .  A
N384        C385   1.343       .  A
C385        C386   1.393       .  A
C385        H388   1.081       .  S
C386        C387   1.385       .  A
C386        C421   1.488       .  S
C387        H389   1.081       .  S
N390        N391   1.325       .  A
N390        C394   1.347       .  A
N391        C392   1.351       .  A
C392        C393   1.388       .  A
C392        H395   1.082       .  S
C393        C394   1.384       .  A
C394        H396   1.082       .  S
N397        N398   1.324       .  A
N397        C401   1.353       .  A
N397       Cu405   2.101       .  S
N398        C399   1.340       .  A
N398       Cu404   2.067       .  S
C399        C400   1.381       .  A
C399        H402   1.081       .  S
C400        C401   1.389       .  A
C400        C715   1.478   1_655  S
C401        H403   1.081       .  S
Cu404       N407   2.065       .  S
Cu405       N415   2.102       .  S
Cu406       N408   2.088       .  S
Cu406       N414   2.088       .  S
N407        N408   1.320       .  A
N407        C411   1.349       .  A
N408        C409   1.343       .  A
C409        C410   1.392       .  A
C409        H412   1.081       .  S
C410        C411   1.386       .  A
C410        C425   1.489       .  S
C411        H413   1.081       .  S
N414        N415   1.325       .  A
N414        C418   1.347       .  A
N415        C416   1.351       .  A
C416        C417   1.388       .  A
C416        H419   1.082       .  S
C417        C418   1.384       .  A
C417        C474   1.481       .  S
C418        H420   1.082       .  S
C421        C422   1.401       .  A
C421        C426   1.414       .  A
C422        C423   1.399       .  A
C422        H427   1.078       .  S
C423        C424   1.399       .  A
C424        C425   1.402       .  A
C424        H428   1.078       .  S
C425        C426   1.414       .  A
C426        H429   1.082       .  S
N430        N431   1.323       .  A
N430        C434   1.353       .  A
N430       Cu438   2.100       .  S
N431        C432   1.339       .  A
N431       Cu437   2.064       .  S
C432        C433   1.380       .  A
C432        H435   1.081       .  S
C433        C434   1.389       .  A
C433       C2263   1.477       .  S
C434        H436   1.081       .  S
Cu437       N440   2.062       .  S
Cu438       N448   2.100       .  S
Cu439       N441   2.089       .  S
Cu439       N447   2.090       .  S
N440        N441   1.319       .  A
N440        C444   1.348       .  A
N441        C442   1.343       .  A
C442        C443   1.393       .  A
C442        H445   1.081       .  S
C443        C444   1.385       .  A
C443        C478   1.488       .  S
C444        H446   1.081       .  S
N447        N448   1.325       .  A
N447        C451   1.347       .  A
N448        C449   1.351       .  A
C449        C450   1.387       .  A
C449        H452   1.082       .  S
C450        C451   1.384       .  A
C451        H453   1.082       .  S
N454        N455   1.323       .  A
N454        C458   1.353       .  A
N454       Cu462   2.100       .  S
N455        C456   1.339       .  A
N455       Cu461   2.063       .  S
C456        C457   1.380       .  A
C456        H459   1.081       .  S
C457        C458   1.389       .  A
C457       C2287   1.477       .  S
C458        H460   1.081       .  S
Cu461       N464   2.062       .  S
Cu462       N472   2.100       .  S
Cu463       N465   2.089       .  S
Cu463       N471   2.090       .  S
N464        N465   1.319       .  A
N464        C468   1.348       .  A
N465        C466   1.343       .  A
C466        C467   1.393       .  A
C466        H469   1.081       .  S
C467        C468   1.385       .  A
C467        C480   1.488       .  S
C468        H470   1.081       .  S
N471        N472   1.325       .  A
N471        C475   1.347       .  A
N472        C473   1.351       .  A
C473        C474   1.387       .  A
C473        H476   1.082       .  S
C474        C475   1.384       .  A
C475        H477   1.082       .  S
C478        C479   1.414       .  A
C478        C483   1.401       .  A
C479        C480   1.414       .  A
C479        H484   1.082       .  S
C480        C481   1.401       .  A
C481        C482   1.399       .  A
C481        H485   1.078       .  S
C482        C483   1.399       .  A
C483        H486   1.078       .  S
N487        N488   1.320       .  A
N487        C491   1.339       .  A
N487       Cu495   2.045       .  S
N488        C489   1.340       .  A
N488       Cu494   2.049       .  S
C489        C490   1.378       .  A
C489        H492   1.082       .  S
C490        C491   1.378       .  A
C490        C610   1.454       .  S
C491        H493   1.082       .  S
Cu494       N497   2.050       .  S
Cu495       N505   2.045       .  S
Cu496       N498   2.054       .  S
Cu496       N504   2.053       .  S
N497        N498   1.318       .  A
N497        C501   1.340       .  A
N498        C499   1.340       .  A
C499        C500   1.387       .  A
C499        H502   1.080       .  S
C500        C501   1.386       .  A
C500        C854   1.480       .  S
C501        H503   1.080       .  S
N504        N505   1.321       .  A
N504        C508   1.341       .  A
N505        C506   1.340       .  A
C506        C507   1.378       .  A
C506        H509   1.082       .  S
C507        C508   1.379       .  A
C507        C514   1.455       .  S
C508        H510   1.082       .  S
N511        N512   1.321       .  A
N511        C515   1.340       .  A
N511       Cu519   2.048       .  S
N512        C513   1.340       .  A
N512       Cu518   2.050       .  S
C513        C514   1.378       .  A
C513        H516   1.082       .  S
C514        C515   1.378       .  A
C515        H517   1.082       .  S
Cu518       N521   2.051       .  S
Cu519       N529   2.048       .  S
Cu520       N522   2.053       .  S
Cu520       N528   2.052       .  S
N521        N522   1.318       .  A
N521        C525   1.340       .  A
N522        C523   1.340       .  A
C523        C524   1.387       .  A
C523        H526   1.080       .  S
C524        C525   1.387       .  A
C524        C738   1.480       .  S
C525        H527   1.080       .  S
N528        N529   1.321       .  A
N528        C532   1.341       .  A
N529        C530   1.340       .  A
C530        C531   1.378       .  A
C530        H533   1.082       .  S
C531        C532   1.379       .  A
C531        C579   1.456       .  S
C532        H534   1.082       .  S
N535        N536   1.321       .  A
N535        C539   1.340       .  A
N535       Cu543   2.046       .  S
N536        C537   1.341       .  A
N536       Cu542   2.056       .  S
C537        C538   1.380       .  A
C537        H540   1.082       .  S
C538        C539   1.378       .  A
C538        C586   1.457       .  S
C539        H541   1.082       .  S
Cu542       N545   2.057       .  S
Cu543       N553   2.046       .  S
Cu544       N546   2.053       .  S
Cu544       N552   2.052       .  S
N545        N546   1.319       .  A
N545        C549   1.340       .  A
N546        C547   1.340       .  A
C547        C548   1.387       .  A
C547        H550   1.080       .  S
C548        C549   1.388       .  A
C548        C681   1.482       .  S
C549        H551   1.080       .  S
N552        N553   1.320       .  A
N552        C556   1.341       .  A
N553        C554   1.340       .  A
C554        C555   1.378       .  A
C554        H557   1.082       .  S
C555        C556   1.379       .  A
C555        C562   1.455       .  S
C556        H558   1.082       .  S
N559        N560   1.320       .  A
N559        C563   1.340       .  A
N559       Cu567   2.047       .  S
N560        C561   1.341       .  A
N560       Cu566   2.051       .  S
C561        C562   1.379       .  A
C561        H564   1.082       .  S
C562        C563   1.378       .  A
C563        H565   1.082       .  S
Cu566       N569   2.052       .  S
Cu567       N577   2.046       .  S
Cu568       N570   2.055       .  S
Cu568       N576   2.054       .  S
N569        N570   1.319       .  A
N569        C573   1.340       .  A
N570        C571   1.340       .  A
C571        C572   1.388       .  A
C571        H574   1.080       .  S
C572        C573   1.387       .  A
C572        C795   1.481       .  S
C573        H575   1.080       .  S
N576        N577   1.321       .  A
N576        C580   1.341       .  A
N577        C578   1.340       .  A
C578        C579   1.378       .  A
C578        H581   1.082       .  S
C579        C580   1.379       .  A
C580        H582   1.082       .  S
N583        N584   1.321       .  A
N583        C587   1.340       .  A
N583       Cu591   2.050       .  S
N584        C585   1.341       .  A
N584       Cu590   2.053       .  S
C585        C586   1.379       .  A
C585        H588   1.082       .  S
C586        C587   1.379       .  A
C587        H589   1.082       .  S
Cu590       N593   2.053       .  S
Cu591       N601   2.050       .  S
Cu592       N594   2.051       .  S
Cu592       N600   2.050       .  S
N593        N594   1.318       .  A
N593        C597   1.340       .  A
N594        C595   1.340       .  A
C595        C596   1.387       .  A
C595        H598   1.080       .  S
C596        C597   1.387       .  A
C596        C966   1.481       .  S
C597        H599   1.080       .  S
N600        N601   1.321       .  A
N600        C604   1.341       .  A
N601        C602   1.340       .  A
C602        C603   1.379       .  A
C602        H605   1.082       .  S
C603        C604   1.378       .  A
C603        C627   1.456       .  S
C604        H606   1.082       .  S
N607        N608   1.320       .  A
N607        C611   1.339       .  A
N607       Cu615   2.044       .  S
N608        C609   1.340       .  A
N608       Cu614   2.050       .  S
C609        C610   1.378       .  A
C609        H612   1.082       .  S
C610        C611   1.377       .  A
C611        H613   1.082       .  S
Cu614       N617   2.051       .  S
Cu615       N625   2.044       .  S
Cu616       N618   2.055       .  S
Cu616       N624   2.054       .  S
N617        N618   1.319       .  A
N617        C621   1.340       .  A
N618        C619   1.340       .  A
C619        C620   1.387       .  A
C619        H622   1.080       .  S
C620        C621   1.386       .  A
C620        C909   1.481       .  S
C621        H623   1.080       .  S
N624        N625   1.320       .  A
N624        C628   1.341       .  A
N625        C626   1.340       .  A
C626        C627   1.377       .  A
C626        H629   1.082       .  S
C627        C628   1.379       .  A
C628        H630   1.082       .  S
N631        N632   1.324       .  A
N631        C635   1.354       .  A
N631       Cu639   2.106       .  S
N632        C633   1.340       .  A
N632       Cu638   2.065       .  S
C633        C634   1.380       .  A
C633        H636   1.081       .  S
C634        C635   1.391       .  A
C634       C1663   1.479   1_545  S
C635        H637   1.081       .  S
Cu638       N641   2.063       .  S
Cu639       N649   2.107       .  S
Cu640       N642   2.092       .  S
Cu640       N648   2.092       .  S
N641        N642   1.319       .  A
N641        C645   1.349       .  A
N642        C643   1.344       .  A
C643        C644   1.393       .  A
C643        H646   1.081       .  S
C644        C645   1.386       .  A
C644        C683   1.490       .  S
C645        H647   1.081       .  S
N648        N649   1.325       .  A
N648        C652   1.348       .  A
N649        C650   1.352       .  A
C650        C651   1.389       .  A
C650        H653   1.082       .  S
C651        C652   1.384       .  A
C651        C936   1.483       .  S
C652        H654   1.082       .  S
N655        N656   1.324       .  A
N655        C659   1.354       .  A
N655       Cu663   2.105       .  S
N656        C657   1.341       .  A
N656       Cu662   2.071       .  S
C657        C658   1.381       .  A
C657        H660   1.081       .  S
C658        C659   1.390       .  A
C658       C1687   1.481   1_545  S
C659        H661   1.081       .  S
Cu662       N665   2.069       .  S
Cu663       N673   2.106       .  S
Cu664       N666   2.091       .  S
Cu664       N672   2.092       .  S
N665        N666   1.320       .  A
N665        C669   1.349       .  A
N666        C667   1.344       .  A
C667        C668   1.393       .  A
C667        H670   1.081       .  S
C668        C669   1.387       .  A
C668        C679   1.491       .  S
C669        H671   1.081       .  S
N672        N673   1.325       .  A
N672        C676   1.347       .  A
N673        C674   1.352       .  A
C674        C675   1.389       .  A
C674        H677   1.082       .  S
C675        C676   1.384       .  A
C675        C765   1.484       .  S
C676        H678   1.082       .  S
C679        C680   1.403       .  A
C679        C684   1.415       .  A
C680        C681   1.400       .  A
C680        H685   1.078       .  S
C681        C682   1.399       .  A
C682        C683   1.402       .  A
C682        H686   1.078       .  S
C683        C684   1.415       .  A
C684        H687   1.082       .  S
N688        N689   1.324       .  A
N688        C692   1.353       .  A
N688       Cu696   2.100       .  S
N689        C690   1.340       .  A
N689       Cu695   2.066       .  S
C690        C691   1.380       .  A
C690        H693   1.081       .  S
C691        C692   1.389       .  A
C692        H694   1.081       .  S
Cu695       N698   2.064       .  S
Cu696       N706   2.100       .  S
Cu697       N699   2.090       .  S
Cu697       N705   2.090       .  S
N698        N699   1.320       .  A
N698        C702   1.349       .  A
N699        C700   1.343       .  A
C700        C701   1.393       .  A
C700        H703   1.081       .  S
C701        C702   1.386       .  A
C701        C740   1.489       .  S
C702        H704   1.081       .  S
N705        N706   1.325       .  A
N705        C709   1.347       .  A
N706        C707   1.351       .  A
C707        C708   1.387       .  A
C707        H710   1.082       .  S
C708        C709   1.384       .  A
C708        C822   1.481       .  S
C709        H711   1.082       .  S
N712        N713   1.324       .  A
N712        C716   1.354       .  A
N712       Cu720   2.105       .  S
N713        C714   1.339       .  A
N713       Cu719   2.063       .  S
C714        C715   1.380       .  A
C714        H717   1.081       .  S
C715        C716   1.390       .  A
C716        H718   1.081       .  S
Cu719       N722   2.061       .  S
Cu720       N730   2.106       .  S
Cu721       N723   2.091       .  S
Cu721       N729   2.092       .  S
N722        N723   1.319       .  A
N722        C726   1.348       .  A
N723        C724   1.343       .  A
C724        C725   1.393       .  A
C724        H727   1.081       .  S
C725        C726   1.385       .  A
C725        C736   1.489       .  S
C726        H728   1.081       .  S
N729        N730   1.325       .  A
N729        C733   1.347       .  A
N730        C731   1.352       .  A
C731        C732   1.388       .  A
C731        H734   1.082       .  S
C732        C733   1.384       .  A
C732        C789   1.483       .  S
C733        H735   1.082       .  S
C736        C737   1.401       .  A
C736        C741   1.414       .  A
C737        C738   1.399       .  A
C737        H742   1.078       .  S
C738        C739   1.399       .  A
C739        C740   1.402       .  A
C739        H743   1.078       .  S
C740        C741   1.414       .  A
C741        H744   1.082       .  S
N745        N746   1.324       .  A
N745        C749   1.354       .  A
N745       Cu753   2.103       .  S
N746        C747   1.340       .  A
N746       Cu752   2.069       .  S
C747        C748   1.381       .  A
C747        H750   1.081       .  S
C748        C749   1.390       .  A
C748       C3349   1.479       .  S
C749        H751   1.081       .  S
Cu752       N755   2.067       .  S
Cu753       N763   2.104       .  S
Cu754       N756   2.093       .  S
Cu754       N762   2.094       .  S
N755        N756   1.320       .  A
N755        C759   1.349       .  A
N756        C757   1.344       .  A
C757        C758   1.393       .  A
C757        H760   1.081       .  S
C758        C759   1.387       .  A
C758        C793   1.491       .  S
C759        H761   1.081       .  S
N762        N763   1.325       .  A
N762        C766   1.348       .  A
N763        C764   1.352       .  A
C764        C765   1.388       .  A
C764        H767   1.082       .  S
C765        C766   1.385       .  A
C766        H768   1.082       .  S
N769        N770   1.324       .  A
N769        C773   1.354       .  A
N769       Cu777   2.103       .  S
N770        C771   1.339       .  A
N770       Cu776   2.064       .  S
C771        C772   1.380       .  A
C771        H774   1.081       .  S
C772        C773   1.390       .  A
C772       C3373   1.478       .  S
C773        H775   1.081       .  S
Cu776       N779   2.062       .  S
Cu777       N787   2.104       .  S
Cu778       N780   2.093       .  S
Cu778       N786   2.094       .  S
N779        N780   1.320       .  A
N779        C783   1.349       .  A
N780        C781   1.344       .  A
C781        C782   1.394       .  A
C781        H784   1.081       .  S
C782        C783   1.386       .  A
C782        C797   1.490       .  S
C783        H785   1.081       .  S
N786        N787   1.325       .  A
N786        C790   1.348       .  A
N787        C788   1.352       .  A
C788        C789   1.388       .  A
C788        H791   1.082       .  S
C789        C790   1.385       .  A
C790        H792   1.082       .  S
C793        C794   1.403       .  A
C793        C798   1.415       .  A
C794        C795   1.400       .  A
C794        H799   1.078       .  S
C795        C796   1.399       .  A
C796        C797   1.401       .  A
C796        H800   1.078       .  S
C797        C798   1.415       .  A
C798        H801   1.082       .  S
N802        N803   1.323       .  A
N802        C806   1.353       .  A
N802       Cu810   2.101       .  S
N803        C804   1.339       .  A
N803       Cu809   2.062       .  S
C804        C805   1.380       .  A
C804        H807   1.081       .  S
C805        C806   1.390       .  A
C805       C1891   1.477       .  S
C806        H808   1.081       .  S
Cu809       N812   2.060       .  S
Cu810       N820   2.102       .  S
Cu811       N813   2.088       .  S
Cu811       N819   2.089       .  S
N812        N813   1.319       .  A
N812        C816   1.348       .  A
N813        C814   1.343       .  A
C814        C815   1.393       .  A
C814        H817   1.081       .  S
C815        C816   1.385       .  A
C815        C852   1.488       .  S
C816        H818   1.081       .  S
N819        N820   1.325       .  A
N819        C823   1.347       .  A
N820        C821   1.351       .  A
C821        C822   1.388       .  A
C821        H824   1.082       .  S
C822        C823   1.384       .  A
C823        H825   1.082       .  S
N826        N827   1.324       .  A
N826        C830   1.353       .  A
N826       Cu834   2.100       .  S
N827        C828   1.339       .  A
N827       Cu833   2.065       .  S
C828        C829   1.380       .  A
C828        H831   1.081       .  S
C829        C830   1.389       .  A
C829       C1915   1.477       .  S
C830        H832   1.081       .  S
Cu833       N836   2.063       .  S
Cu834       N844   2.101       .  S
Cu835       N837   2.088       .  S
Cu835       N843   2.089       .  S
N836        N837   1.319       .  A
N836        C840   1.348       .  A
N837        C838   1.343       .  A
C838        C839   1.392       .  A
C838        H841   1.081       .  S
C839        C840   1.386       .  A
C839        C850   1.488       .  S
C840        H842   1.081       .  S
N843        N844   1.325       .  A
N843        C847   1.347       .  A
N844        C845   1.351       .  A
C845        C846   1.387       .  A
C845        H848   1.082       .  S
C846        C847   1.384       .  A
C846        C879   1.481       .  S
C847        H849   1.082       .  S
C850        C851   1.414       .  A
C850        C855   1.402       .  A
C851        C852   1.414       .  A
C851        H856   1.082       .  S
C852        C853   1.401       .  A
C853        C854   1.399       .  A
C853        H857   1.078       .  S
C854        C855   1.400       .  A
C855        H858   1.078       .  S
N859        N860   1.324       .  A
N859        C863   1.353       .  A
N859       Cu867   2.100       .  S
N860        C861   1.339       .  A
N860       Cu866   2.065       .  S
C861        C862   1.380       .  A
C861        H864   1.081       .  S
C862        C863   1.389       .  A
C862       C3121   1.477   1_556  S
C863        H865   1.081       .  S
Cu866       N869   2.063       .  S
Cu867       N877   2.100       .  S
Cu868       N870   2.089       .  S
Cu868       N876   2.089       .  S
N869        N870   1.319       .  A
N869        C873   1.348       .  A
N870        C871   1.343       .  A
C871        C872   1.393       .  A
C871        H874   1.081       .  S
C872        C873   1.386       .  A
C872        C907   1.489       .  S
C873        H875   1.081       .  S
N876        N877   1.325       .  A
N876        C880   1.347       .  A
N877        C878   1.351       .  A
C878        C879   1.387       .  A
C878        H881   1.082       .  S
C879        C880   1.384       .  A
C880        H882   1.082       .  S
N883        N884   1.324       .  A
N883        C887   1.354       .  A
N883       Cu891   2.104       .  S
N884        C885   1.339       .  A
N884       Cu890   2.064       .  S
C885        C886   1.380       .  A
C885        H888   1.081       .  S
C886        C887   1.390       .  A
C886       C3145   1.478   1_556  S
C887        H889   1.081       .  S
Cu890       N893   2.062       .  S
Cu891       N901   2.105       .  S
Cu892       N894   2.090       .  S
Cu892       N900   2.091       .  S
N893        N894   1.319       .  A
N893        C897   1.348       .  A
N894        C895   1.343       .  A
C895        C896   1.393       .  A
C895        H898   1.081       .  S
C896        C897   1.386       .  A
C896        C911   1.489       .  S
C897        H899   1.081       .  S
N900        N901   1.325       .  A
N900        C904   1.347       .  A
N901        C902   1.352       .  A
C902        C903   1.388       .  A
C902        H905   1.082       .  S
C903        C904   1.384       .  A
C903        C960   1.483       .  S
C904        H906   1.082       .  S
C907        C908   1.402       .  A
C907        C912   1.414       .  A
C908        C909   1.400       .  A
C908        H913   1.078       .  S
C909        C910   1.399       .  A
C910        C911   1.401       .  A
C910        H914   1.078       .  S
C911        C912   1.414       .  A
C912        H915   1.082       .  S
N916        N917   1.324       .  A
N916        C920   1.353       .  A
N916       Cu924   2.103       .  S
N917        C918   1.340       .  A
N917       Cu923   2.064       .  S
C918        C919   1.380       .  A
C918        H921   1.081       .  S
C919        C920   1.390       .  A
C920        H922   1.081       .  S
Cu923       N926   2.062       .  S
Cu924       N934   2.104       .  S
Cu925       N927   2.094       .  S
Cu925       N933   2.094       .  S
N926        N927   1.320       .  A
N926        C930   1.349       .  A
N927        C928   1.344       .  A
C928        C929   1.394       .  A
C928        H931   1.081       .  S
C929        C930   1.386       .  A
C929        C964   1.490       .  S
C930        H932   1.081       .  S
N933        N934   1.325       .  A
N933        C937   1.348       .  A
N934        C935   1.352       .  A
C935        C936   1.388       .  A
C935        H938   1.082       .  S
C936        C937   1.385       .  A
C937        H939   1.082       .  S
N940        N941   1.324       .  A
N940        C944   1.354       .  A
N940       Cu948   2.103       .  S
N941        C942   1.340       .  A
N941       Cu947   2.067       .  S
C942        C943   1.381       .  A
C942        H945   1.081       .  S
C943        C944   1.390       .  A
C944        H946   1.081       .  S
Cu947       N950   2.065       .  S
Cu948       N958   2.104       .  S
Cu949       N951   2.093       .  S
Cu949       N957   2.093       .  S
N950        N951   1.320       .  A
N950        C954   1.349       .  A
N951        C952   1.344       .  A
C952        C953   1.393       .  A
C952        H955   1.081       .  S
C953        C954   1.386       .  A
C953        C968   1.490       .  S
C954        H956   1.081       .  S
N957        N958   1.325       .  A
N957        C961   1.348       .  A
N958        C959   1.352       .  A
C959        C960   1.388       .  A
C959        H962   1.082       .  S
C960        C961   1.385       .  A
C961        H963   1.082       .  S
C964        C965   1.401       .  A
C964        C969   1.415       .  A
C965        C966   1.399       .  A
C965        H970   1.078       .  S
C966        C967   1.400       .  A
C967        C968   1.402       .  A
C967        H971   1.078       .  S
C968        C969   1.415       .  A
C969        H972   1.082       .  S
N973        N974   1.321       .  A
N973        C977   1.340       .  A
N973       Cu981   2.048       .  S
N974        C975   1.340       .  A
N974       Cu980   2.050       .  S
C975        C976   1.378       .  A
C975        H978   1.082       .  S
C976        C977   1.378       .  A
C976       C1089   1.455       .  S
C977        H979   1.082       .  S
Cu980       N983   2.051       .  S
Cu981       N991   2.048       .  S
Cu982       N984   2.053       .  S
Cu982       N990   2.052       .  S
N983        N984   1.318       .  A
N983        C987   1.340       .  A
N984        C985   1.340       .  A
C985        C986   1.387       .  A
C985        H988   1.080       .  S
C986        C987   1.387       .  A
C986       C1224   1.480       .  S
C987        H989   1.080       .  S
N990        N991   1.321       .  A
N990        C994   1.341       .  A
N991        C992   1.340       .  A
C992        C993   1.378       .  A
C992        H995   1.082       .  S
C993        C994   1.379       .  A
C993       C1017   1.456       .  S
C994        H996   1.082       .  S
N997        N998   1.320       .  A
N997       C1001   1.340       .  A
N997      Cu1005   2.046       .  S
N998        C999   1.341       .  A
N998      Cu1004   2.051       .  S
C999       C1000   1.379       .  A
C999       H1002   1.082       .  S
C1000      C1001   1.378       .  A
C1000      C1041   1.455       .  S
C1001      H1003   1.082       .  S
Cu1004     N1007   2.052       .  S
Cu1005     N1015   2.046       .  S
Cu1006     N1008   2.055       .  S
Cu1006     N1014   2.054       .  S
N1007      N1008   1.319       .  A
N1007      C1011   1.340       .  A
N1008      C1009   1.340       .  A
C1009      C1010   1.388       .  A
C1009      H1012   1.080       .  S
C1010      C1011   1.387       .  A
C1010      C1169   1.481       .  S
C1011      H1013   1.080       .  S
N1014      N1015   1.321       .  A
N1014      C1018   1.341       .  A
N1015      C1016   1.340       .  A
C1016      C1017   1.378       .  A
C1016      H1019   1.082       .  S
C1017      C1018   1.379       .  A
C1018      H1020   1.082       .  S
N1021      N1022   1.321       .  A
N1021      C1025   1.340       .  A
N1021     Cu1029   2.046       .  S
N1022      C1023   1.341       .  A
N1022     Cu1028   2.056       .  S
C1023      C1024   1.380       .  A
C1023      H1026   1.082       .  S
C1024      C1025   1.378       .  A
C1024      C1048   1.457       .  S
C1025      H1027   1.082       .  S
Cu1028     N1031   2.057       .  S
Cu1029     N1039   2.046       .  S
Cu1030     N1032   2.053       .  S
Cu1030     N1038   2.052       .  S
N1031      N1032   1.319       .  A
N1031      C1035   1.340       .  A
N1032      C1033   1.340       .  A
C1033      C1034   1.387       .  A
C1033      H1036   1.080       .  S
C1034      C1035   1.388       .  A
C1034      C1395   1.482       .  S
C1035      H1037   1.080       .  S
N1038      N1039   1.320       .  A
N1038      C1042   1.341       .  A
N1039      C1040   1.340       .  A
C1040      C1041   1.378       .  A
C1040      H1043   1.082       .  S
C1041      C1042   1.379       .  A
C1042      H1044   1.082       .  S
N1045      N1046   1.321       .  A
N1045      C1049   1.340       .  A
N1045     Cu1053   2.050       .  S
N1046      C1047   1.341       .  A
N1046     Cu1052   2.052       .  S
C1047      C1048   1.379       .  A
C1047      H1050   1.082       .  S
C1048      C1049   1.379       .  A
C1049      H1051   1.082       .  S
Cu1052     N1055   2.053       .  S
Cu1053     N1063   2.050       .  S
Cu1054     N1056   2.051       .  S
Cu1054     N1062   2.050       .  S
N1055      N1056   1.318       .  A
N1055      C1059   1.340       .  A
N1056      C1057   1.340       .  A
C1057      C1058   1.387       .  A
C1057      H1060   1.080       .  S
C1058      C1059   1.387       .  A
C1058      C1452   1.481       .  S
C1059      H1061   1.080       .  S
N1062      N1063   1.321       .  A
N1062      C1066   1.341       .  A
N1063      C1064   1.340       .  A
C1064      C1065   1.379       .  A
C1064      H1067   1.082       .  S
C1065      C1066   1.378       .  A
C1065      C1113   1.456       .  S
C1066      H1068   1.082       .  S
N1069      N1070   1.320       .  A
N1069      C1073   1.339       .  A
N1069     Cu1077   2.045       .  S
N1070      C1071   1.340       .  A
N1070     Cu1076   2.049       .  S
C1071      C1072   1.378       .  A
C1071      H1074   1.082       .  S
C1072      C1073   1.378       .  A
C1072      C1096   1.454       .  S
C1073      H1075   1.082       .  S
Cu1076     N1079   2.050       .  S
Cu1077     N1087   2.045       .  S
Cu1078     N1080   2.054       .  S
Cu1078     N1086   2.053       .  S
N1079      N1080   1.318       .  A
N1079      C1083   1.340       .  A
N1080      C1081   1.340       .  A
C1081      C1082   1.387       .  A
C1081      H1084   1.080       .  S
C1082      C1083   1.386       .  A
C1082      C1281   1.480       .  S
C1083      H1085   1.080       .  S
N1086      N1087   1.321       .  A
N1086      C1090   1.341       .  A
N1087      C1088   1.340       .  A
C1088      C1089   1.378       .  A
C1088      H1091   1.082       .  S
C1089      C1090   1.379       .  A
C1090      H1092   1.082       .  S
N1093      N1094   1.320       .  A
N1093      C1097   1.339       .  A
N1093     Cu1101   2.044       .  S
N1094      C1095   1.340       .  A
N1094     Cu1100   2.050       .  S
C1095      C1096   1.378       .  A
C1095      H1098   1.082       .  S
C1096      C1097   1.377       .  A
C1097      H1099   1.082       .  S
Cu1100     N1103   2.051       .  S
Cu1101     N1111   2.044       .  S
Cu1102     N1104   2.055       .  S
Cu1102     N1110   2.054       .  S
N1103      N1104   1.319       .  A
N1103      C1107   1.340       .  A
N1104      C1105   1.340       .  A
C1105      C1106   1.387       .  A
C1105      H1108   1.080       .  S
C1106      C1107   1.386       .  A
C1106      C1338   1.481       .  S
C1107      H1109   1.080       .  S
N1110      N1111   1.320       .  A
N1110      C1114   1.341       .  A
N1111      C1112   1.340       .  A
C1112      C1113   1.377       .  A
C1112      H1115   1.082       .  S
C1113      C1114   1.379       .  A
C1114      H1116   1.082       .  S
N1117      N1118   1.324       .  A
N1117      C1121   1.354       .  A
N1117     Cu1125   2.103       .  S
N1118      C1119   1.340       .  A
N1118     Cu1124   2.069       .  S
C1119      C1120   1.381       .  A
C1119      H1122   1.081       .  S
C1120      C1121   1.390       .  A
C1120      C2602   1.479       .  S
C1121      H1123   1.081       .  S
Cu1124     N1127   2.067       .  S
Cu1125     N1135   2.104       .  S
Cu1126     N1128   2.093       .  S
Cu1126     N1134   2.094       .  S
N1127      N1128   1.320       .  A
N1127      C1131   1.349       .  A
N1128      C1129   1.344       .  A
C1129      C1130   1.393       .  A
C1129      H1132   1.081       .  S
C1130      C1131   1.386       .  A
C1130      C1165   1.491       .  S
C1131      H1133   1.081       .  S
N1134      N1135   1.325       .  A
N1134      C1138   1.348       .  A
N1135      C1136   1.352       .  A
C1136      C1137   1.388       .  A
C1136      H1139   1.082       .  S
C1137      C1138   1.385       .  A
C1137      C1365   1.483       .  S
C1138      H1140   1.082       .  S
N1141      N1142   1.324       .  A
N1141      C1145   1.354       .  A
N1141     Cu1149   2.104       .  S
N1142      C1143   1.339       .  A
N1142     Cu1148   2.064       .  S
C1143      C1144   1.380       .  A
C1143      H1146   1.081       .  S
C1144      C1145   1.390       .  A
C1144      C2578   1.478       .  S
C1145      H1147   1.081       .  S
Cu1148     N1151   2.062       .  S
Cu1149     N1159   2.104       .  S
Cu1150     N1152   2.093       .  S
Cu1150     N1158   2.094       .  S
N1151      N1152   1.320       .  A
N1151      C1155   1.349       .  A
N1152      C1153   1.344       .  A
C1153      C1154   1.394       .  A
C1153      H1156   1.081       .  S
C1154      C1155   1.386       .  A
C1154      C1167   1.490       .  S
C1155      H1157   1.081       .  S
N1158      N1159   1.325       .  A
N1158      C1162   1.348       .  A
N1159      C1160   1.352       .  A
C1160      C1161   1.388       .  A
C1160      H1163   1.082       .  S
C1161      C1162   1.385       .  A
C1161      C1194   1.483       .  S
C1162      H1164   1.082       .  S
C1165      C1166   1.415       .  A
C1165      C1170   1.403       .  A
C1166      C1167   1.415       .  A
C1166      H1171   1.082       .  S
C1167      C1168   1.401       .  A
C1168      C1169   1.399       .  A
C1168      H1172   1.078       .  S
C1169      C1170   1.400       .  A
C1170      H1173   1.078       .  S
N1174      N1175   1.324       .  A
N1174      C1178   1.354       .  A
N1174     Cu1182   2.105       .  S
N1175      C1176   1.339       .  A
N1175     Cu1181   2.063       .  S
C1176      C1177   1.380       .  A
C1176      H1179   1.081       .  S
C1177      C1178   1.390       .  A
C1178      H1180   1.081       .  S
Cu1181     N1184   2.061       .  S
Cu1182     N1192   2.106       .  S
Cu1183     N1185   2.091       .  S
Cu1183     N1191   2.092       .  S
N1184      N1185   1.319       .  A
N1184      C1188   1.348       .  A
N1185      C1186   1.343       .  A
C1186      C1187   1.393       .  A
C1186      H1189   1.081       .  S
C1187      C1188   1.385       .  A
C1187      C1222   1.489       .  S
C1188      H1190   1.081       .  S
N1191      N1192   1.325       .  A
N1191      C1195   1.347       .  A
N1192      C1193   1.352       .  A
C1193      C1194   1.388       .  A
C1193      H1196   1.082       .  S
C1194      C1195   1.384       .  A
C1195      H1197   1.082       .  S
N1198      N1199   1.324       .  A
N1198      C1202   1.353       .  A
N1198     Cu1206   2.100       .  S
N1199      C1200   1.340       .  A
N1199     Cu1205   2.066       .  S
C1200      C1201   1.380       .  A
C1200      H1203   1.081       .  S
C1201      C1202   1.389       .  A
C1202      H1204   1.081       .  S
Cu1205     N1208   2.064       .  S
Cu1206     N1216   2.101       .  S
Cu1207     N1209   2.090       .  S
Cu1207     N1215   2.090       .  S
N1208      N1209   1.320       .  A
N1208      C1212   1.349       .  A
N1209      C1210   1.343       .  A
C1210      C1211   1.393       .  A
C1210      H1213   1.081       .  S
C1211      C1212   1.386       .  A
C1211      C1226   1.489       .  S
C1212      H1214   1.081       .  S
N1215      N1216   1.325       .  A
N1215      C1219   1.347       .  A
N1216      C1217   1.351       .  A
C1217      C1218   1.387       .  A
C1217      H1220   1.082       .  S
C1218      C1219   1.384       .  A
C1218      C1251   1.481       .  S
C1219      H1221   1.082       .  S
C1222      C1223   1.401       .  A
C1222      C1227   1.414       .  A
C1223      C1224   1.399       .  A
C1223      H1228   1.078       .  S
C1224      C1225   1.399       .  A
C1225      C1226   1.402       .  A
C1225      H1229   1.078       .  S
C1226      C1227   1.414       .  A
C1227      H1230   1.082       .  S
N1231      N1232   1.323       .  A
N1231      C1235   1.353       .  A
N1231     Cu1239   2.102       .  S
N1232      C1233   1.339       .  A
N1232     Cu1238   2.063       .  S
C1233      C1234   1.380       .  A
C1233      H1236   1.081       .  S
C1234      C1235   1.390       .  A
C1234      C1630   1.477       .  S
C1235      H1237   1.081       .  S
Cu1238     N1241   2.061       .  S
Cu1239     N1249   2.102       .  S
Cu1240     N1242   2.088       .  S
Cu1240     N1248   2.089       .  S
N1241      N1242   1.319       .  A
N1241      C1245   1.348       .  A
N1242      C1243   1.343       .  A
C1243      C1244   1.393       .  A
C1243      H1246   1.081       .  S
C1244      C1245   1.385       .  A
C1244      C1283   1.488       .  S
C1245      H1247   1.081       .  S
N1248      N1249   1.325       .  A
N1248      C1252   1.347       .  A
N1249      C1250   1.351       .  A
C1250      C1251   1.388       .  A
C1250      H1253   1.082       .  S
C1251      C1252   1.384       .  A
C1252      H1254   1.082       .  S
N1255      N1256   1.324       .  A
N1255      C1259   1.353       .  A
N1255     Cu1263   2.100       .  S
N1256      C1257   1.339       .  A
N1256     Cu1262   2.065       .  S
C1257      C1258   1.380       .  A
C1257      H1260   1.081       .  S
C1258      C1259   1.389       .  A
C1258      C1606   1.477       .  S
C1259      H1261   1.081       .  S
Cu1262     N1265   2.064       .  S
Cu1263     N1273   2.101       .  S
Cu1264     N1266   2.088       .  S
Cu1264     N1272   2.089       .  S
N1265      N1266   1.320       .  A
N1265      C1269   1.348       .  A
N1266      C1267   1.343       .  A
C1267      C1268   1.392       .  A
C1267      H1270   1.081       .  S
C1268      C1269   1.386       .  A
C1268      C1279   1.489       .  S
C1269      H1271   1.081       .  S
N1272      N1273   1.325       .  A
N1272      C1276   1.347       .  A
N1273      C1274   1.351       .  A
C1274      C1275   1.387       .  A
C1274      H1277   1.082       .  S
C1275      C1276   1.384       .  A
C1275      C1308   1.481       .  S
C1276      H1278   1.082       .  S
C1279      C1280   1.402       .  A
C1279      C1284   1.414       .  A
C1280      C1281   1.400       .  A
C1280      H1285   1.078       .  S
C1281      C1282   1.399       .  A
C1282      C1283   1.401       .  A
C1282      H1286   1.078       .  S
C1283      C1284   1.414       .  A
C1284      H1287   1.082       .  S
N1288      N1289   1.324       .  A
N1288      C1292   1.353       .  A
N1288     Cu1296   2.100       .  S
N1289      C1290   1.339       .  A
N1289     Cu1295   2.065       .  S
C1290      C1291   1.380       .  A
C1290      H1293   1.081       .  S
C1291      C1292   1.389       .  A
C1291      C2749   1.477   1_556  S
C1292      H1294   1.081       .  S
Cu1295     N1298   2.063       .  S
Cu1296     N1306   2.100       .  S
Cu1297     N1299   2.089       .  S
Cu1297     N1305   2.089       .  S
N1298      N1299   1.319       .  A
N1298      C1302   1.348       .  A
N1299      C1300   1.343       .  A
C1300      C1301   1.393       .  A
C1300      H1303   1.081       .  S
C1301      C1302   1.386       .  A
C1301      C1336   1.489       .  S
C1302      H1304   1.081       .  S
N1305      N1306   1.325       .  A
N1305      C1309   1.347       .  A
N1306      C1307   1.351       .  A
C1307      C1308   1.387       .  A
C1307      H1310   1.082       .  S
C1308      C1309   1.384       .  A
C1309      H1311   1.082       .  S
N1312      N1313   1.324       .  A
N1312      C1316   1.354       .  A
N1312     Cu1320   2.104       .  S
N1313      C1314   1.339       .  A
N1313     Cu1319   2.064       .  S
C1314      C1315   1.380       .  A
C1314      H1317   1.081       .  S
C1315      C1316   1.390       .  A
C1315      C2773   1.478   1_556  S
C1316      H1318   1.081       .  S
Cu1319     N1322   2.062       .  S
Cu1320     N1330   2.105       .  S
Cu1321     N1323   2.090       .  S
Cu1321     N1329   2.091       .  S
N1322      N1323   1.319       .  A
N1322      C1326   1.348       .  A
N1323      C1324   1.343       .  A
C1324      C1325   1.393       .  A
C1324      H1327   1.081       .  S
C1325      C1326   1.386       .  A
C1325      C1340   1.489       .  S
C1326      H1328   1.081       .  S
N1329      N1330   1.325       .  A
N1329      C1333   1.347       .  A
N1330      C1331   1.352       .  A
C1331      C1332   1.388       .  A
C1331      H1334   1.082       .  S
C1332      C1333   1.384       .  A
C1332      C1422   1.483       .  S
C1333      H1335   1.082       .  S
C1336      C1337   1.402       .  A
C1336      C1341   1.414       .  A
C1337      C1338   1.400       .  A
C1337      H1342   1.078       .  S
C1338      C1339   1.399       .  A
C1339      C1340   1.401       .  A
C1339      H1343   1.078       .  S
C1340      C1341   1.414       .  A
C1341      H1344   1.082       .  S
N1345      N1346   1.324       .  A
N1345      C1349   1.354       .  A
N1345     Cu1353   2.105       .  S
N1346      C1347   1.341       .  A
N1346     Cu1352   2.071       .  S
C1347      C1348   1.381       .  A
C1347      H1350   1.081       .  S
C1348      C1349   1.390       .  A
C1348      C1777   1.480   1_655  S
C1349      H1351   1.081       .  S
Cu1352     N1355   2.069       .  S
Cu1353     N1363   2.106       .  S
Cu1354     N1356   2.091       .  S
Cu1354     N1362   2.092       .  S
N1355      N1356   1.320       .  A
N1355      C1359   1.349       .  A
N1356      C1357   1.344       .  A
C1357      C1358   1.393       .  A
C1357      H1360   1.081       .  S
C1358      C1359   1.387       .  A
C1358      C1393   1.491       .  S
C1359      H1361   1.081       .  S
N1362      N1363   1.325       .  A
N1362      C1366   1.347       .  A
N1363      C1364   1.352       .  A
C1364      C1365   1.389       .  A
C1364      H1367   1.082       .  S
C1365      C1366   1.384       .  A
C1366      H1368   1.082       .  S
N1369      N1370   1.324       .  A
N1369      C1373   1.354       .  A
N1369     Cu1377   2.106       .  S
N1370      C1371   1.340       .  A
N1370     Cu1376   2.065       .  S
C1371      C1372   1.380       .  A
C1371      H1374   1.081       .  S
C1372      C1373   1.390       .  A
C1372      C1801   1.479   1_655  S
C1373      H1375   1.081       .  S
Cu1376     N1379   2.063       .  S
Cu1377     N1387   2.106       .  S
Cu1378     N1380   2.091       .  S
Cu1378     N1386   2.092       .  S
N1379      N1380   1.319       .  A
N1379      C1383   1.349       .  A
N1380      C1381   1.344       .  A
C1381      C1382   1.393       .  A
C1381      H1384   1.081       .  S
C1382      C1383   1.386       .  A
C1382      C1397   1.490       .  S
C1383      H1385   1.081       .  S
N1386      N1387   1.325       .  A
N1386      C1390   1.347       .  A
N1387      C1388   1.352       .  A
C1388      C1389   1.388       .  A
C1388      H1391   1.082       .  S
C1389      C1390   1.384       .  A
C1389      C1446   1.483       .  S
C1390      H1392   1.082       .  S
C1393      C1394   1.403       .  A
C1393      C1398   1.415       .  A
C1394      C1395   1.400       .  A
C1394      H1399   1.078       .  S
C1395      C1396   1.399       .  A
C1396      C1397   1.402       .  A
C1396      H1400   1.078       .  S
C1397      C1398   1.414       .  A
C1398      H1401   1.082       .  S
N1402      N1403   1.324       .  A
N1402      C1406   1.354       .  A
N1402     Cu1410   2.103       .  S
N1403      C1404   1.340       .  A
N1403     Cu1409   2.067       .  S
C1404      C1405   1.381       .  A
C1404      H1407   1.081       .  S
C1405      C1406   1.390       .  A
C1406      H1408   1.081       .  S
Cu1409     N1412   2.065       .  S
Cu1410     N1420   2.104       .  S
Cu1411     N1413   2.093       .  S
Cu1411     N1419   2.093       .  S
N1412      N1413   1.320       .  A
N1412      C1416   1.349       .  A
N1413      C1414   1.344       .  A
C1414      C1415   1.393       .  A
C1414      H1417   1.081       .  S
C1415      C1416   1.386       .  A
C1415      C1454   1.490       .  S
C1416      H1418   1.081       .  S
N1419      N1420   1.325       .  A
N1419      C1423   1.348       .  A
N1420      C1421   1.352       .  A
C1421      C1422   1.388       .  A
C1421      H1424   1.082       .  S
C1422      C1423   1.385       .  A
C1423      H1425   1.082       .  S
N1426      N1427   1.324       .  A
N1426      C1430   1.353       .  A
N1426     Cu1434   2.103       .  S
N1427      C1428   1.339       .  A
N1427     Cu1433   2.064       .  S
C1428      C1429   1.380       .  A
C1428      H1431   1.081       .  S
C1429      C1430   1.390       .  A
C1430      H1432   1.081       .  S
Cu1433     N1436   2.062       .  S
Cu1434     N1444   2.104       .  S
Cu1435     N1437   2.094       .  S
Cu1435     N1443   2.094       .  S
N1436      N1437   1.320       .  A
N1436      C1440   1.349       .  A
N1437      C1438   1.344       .  A
C1438      C1439   1.394       .  A
C1438      H1441   1.081       .  S
C1439      C1440   1.386       .  A
C1439      C1450   1.490       .  S
C1440      H1442   1.081       .  S
N1443      N1444   1.325       .  A
N1443      C1447   1.348       .  A
N1444      C1445   1.352       .  A
C1445      C1446   1.388       .  A
C1445      H1448   1.082       .  S
C1446      C1447   1.385       .  A
C1447      H1449   1.082       .  S
C1450      C1451   1.401       .  A
C1450      C1455   1.415       .  A
C1451      C1452   1.399       .  A
C1451      H1456   1.078       .  S
C1452      C1453   1.400       .  A
C1453      C1454   1.402       .  A
C1453      H1457   1.078       .  S
C1454      C1455   1.415       .  A
C1455      H1458   1.082       .  S
N1459      N1460   1.320       .  A
N1459      C1463   1.340       .  A
N1459     Cu1467   2.047       .  S
N1460      C1461   1.341       .  A
N1460     Cu1466   2.051       .  S
C1461      C1462   1.379       .  A
C1461      H1464   1.081       .  S
C1462      C1463   1.378       .  A
C1462      C1558   1.455       .  S
C1463      H1465   1.082       .  S
Cu1466     N1469   2.052       .  S
Cu1467     N1477   2.047       .  S
Cu1468     N1470   2.051       .  S
Cu1468     N1476   2.050       .  S
N1469      N1470   1.318       .  A
N1469      C1473   1.340       .  A
N1470      C1471   1.340       .  A
C1471      C1472   1.387       .  A
C1471      H1474   1.080       .  S
C1472      C1473   1.387       .  A
C1472      C1653   1.480       .  S
C1473      H1475   1.080       .  S
N1476      N1477   1.321       .  A
N1476      C1480   1.341       .  A
N1477      C1478   1.340       .  A
C1478      C1479   1.378       .  A
C1478      H1481   1.082       .  S
C1479      C1480   1.378       .  A
C1479      C1510   1.455       .  S
C1480      H1482   1.082       .  S
N1483      N1484   1.320       .  A
N1483      C1487   1.340       .  A
N1483     Cu1491   2.047       .  S
N1484      C1485   1.341       .  A
N1484     Cu1490   2.051       .  S
C1485      C1486   1.379       .  A
C1485      H1488   1.081       .  S
C1486      C1487   1.378       .  A
C1486      C1599   1.455       .  S
C1487      H1489   1.082       .  S
Cu1490     N1493   2.052       .  S
Cu1491     N1501   2.047       .  S
Cu1492     N1494   2.051       .  S
Cu1492     N1500   2.050       .  S
N1493      N1494   1.318       .  A
N1493      C1497   1.340       .  A
N1494      C1495   1.340       .  A
C1495      C1496   1.387       .  A
C1495      H1498   1.080       .  S
C1496      C1497   1.387       .  A
C1496      C1938   1.480       .  S
C1497      H1499   1.080       .  S
N1500      N1501   1.321       .  A
N1500      C1504   1.341       .  A
N1501      C1502   1.340       .  A
C1502      C1503   1.378       .  A
C1502      H1505   1.082       .  S
C1503      C1504   1.378       .  A
C1503      C1527   1.455       .  S
C1504      H1506   1.082       .  S
N1507      N1508   1.320       .  A
N1507      C1511   1.339       .  A
N1507     Cu1515   2.045       .  S
N1508      C1509   1.341       .  A
N1508     Cu1514   2.051       .  S
C1509      C1510   1.379       .  A
C1509      H1512   1.082       .  S
C1510      C1511   1.378       .  A
C1511      H1513   1.082       .  S
Cu1514     N1517   2.052       .  S
Cu1515     N1525   2.045       .  S
Cu1516     N1518   2.052       .  S
Cu1516     N1524   2.051       .  S
N1517      N1518   1.318       .  A
N1517      C1521   1.340       .  A
N1518      C1519   1.340       .  A
C1519      C1520   1.387       .  A
C1519      H1522   1.080       .  S
C1520      C1521   1.387       .  A
C1520      C1881   1.480       .  S
C1521      H1523   1.080       .  S
N1524      N1525   1.320       .  A
N1524      C1528   1.341       .  A
N1525      C1526   1.339       .  A
C1526      C1527   1.378       .  A
C1526      H1529   1.082       .  S
C1527      C1528   1.379       .  A
C1528      H1530   1.082       .  S
N1531      N1532   1.321       .  A
N1531      C1535   1.340       .  A
N1531     Cu1539   2.046       .  S
N1532      C1533   1.341       .  A
N1532     Cu1538   2.052       .  S
C1533      C1534   1.379       .  A
C1533      H1536   1.082       .  S
C1534      C1535   1.378       .  A
C1534      C1582   1.455       .  S
C1535      H1537   1.082       .  S
Cu1538     N1541   2.053       .  S
Cu1539     N1549   2.046       .  S
Cu1540     N1542   2.053       .  S
Cu1540     N1548   2.052       .  S
N1541      N1542   1.319       .  A
N1541      C1545   1.340       .  A
N1542      C1543   1.340       .  A
C1543      C1544   1.387       .  A
C1543      H1546   1.080       .  S
C1544      C1545   1.387       .  A
C1544      C1767   1.481       .  S
C1545      H1547   1.080       .  S
N1548      N1549   1.321       .  A
N1548      C1552   1.341       .  A
N1549      C1550   1.340       .  A
C1550      C1551   1.378       .  A
C1550      H1553   1.082       .  S
C1551      C1552   1.379       .  A
C1551      C1575   1.456       .  S
C1552      H1554   1.082       .  S
N1555      N1556   1.321       .  A
N1555      C1559   1.340       .  A
N1555     Cu1563   2.046       .  S
N1556      C1557   1.341       .  A
N1556     Cu1562   2.053       .  S
C1557      C1558   1.379       .  A
C1557      H1560   1.081       .  S
C1558      C1559   1.378       .  A
C1559      H1561   1.082       .  S
Cu1562     N1565   2.054       .  S
Cu1563     N1573   2.046       .  S
Cu1564     N1566   2.053       .  S
Cu1564     N1572   2.052       .  S
N1565      N1566   1.319       .  A
N1565      C1569   1.340       .  A
N1566      C1567   1.340       .  A
C1567      C1568   1.387       .  A
C1567      H1570   1.080       .  S
C1568      C1569   1.387       .  A
C1568      C1710   1.481       .  S
C1569      H1571   1.080       .  S
N1572      N1573   1.320       .  A
N1572      C1576   1.341       .  A
N1573      C1574   1.340       .  A
C1574      C1575   1.378       .  A
C1574      H1577   1.082       .  S
C1575      C1576   1.379       .  A
C1576      H1578   1.082       .  S
N1579      N1580   1.320       .  A
N1579      C1583   1.340       .  A
N1579     Cu1587   2.046       .  S
N1580      C1581   1.341       .  A
N1580     Cu1586   2.052       .  S
C1581      C1582   1.379       .  A
C1581      H1584   1.082       .  S
C1582      C1583   1.378       .  A
C1583      H1585   1.082       .  S
Cu1586     N1589   2.053       .  S
Cu1587     N1597   2.046       .  S
Cu1588     N1590   2.054       .  S
Cu1588     N1596   2.053       .  S
N1589      N1590   1.319       .  A
N1589      C1593   1.340       .  A
N1590      C1591   1.340       .  A
C1591      C1592   1.387       .  A
C1591      H1594   1.080       .  S
C1592      C1593   1.387       .  A
C1592      C1826   1.481       .  S
C1593      H1595   1.080       .  S
N1596      N1597   1.321       .  A
N1596      C1600   1.341       .  A
N1597      C1598   1.340       .  A
C1598      C1599   1.378       .  A
C1598      H1601   1.082       .  S
C1599      C1600   1.379       .  A
C1600      H1602   1.081       .  S
N1603      N1604   1.323       .  A
N1603      C1607   1.353       .  A
N1603     Cu1611   2.102       .  S
N1604      C1605   1.339       .  A
N1604     Cu1610   2.063       .  S
C1605      C1606   1.380       .  A
C1605      H1608   1.081       .  S
C1606      C1607   1.390       .  A
C1607      H1609   1.081       .  S
Cu1610     N1613   2.062       .  S
Cu1611     N1621   2.102       .  S
Cu1612     N1614   2.089       .  S
Cu1612     N1620   2.089       .  S
N1613      N1614   1.319       .  A
N1613      C1617   1.348       .  A
N1614      C1615   1.343       .  A
C1615      C1616   1.393       .  A
C1615      H1618   1.081       .  S
C1616      C1617   1.386       .  A
C1616      C1655   1.488       .  S
C1617      H1619   1.081       .  S
N1620      N1621   1.325       .  A
N1620      C1624   1.347       .  A
N1621      C1622   1.351       .  A
C1622      C1623   1.388       .  A
C1622      H1625   1.082       .  S
C1623      C1624   1.384       .  A
C1623      C1851   1.481       .  S
C1624      H1626   1.082       .  S
N1627      N1628   1.323       .  A
N1627      C1631   1.353       .  A
N1627     Cu1635   2.100       .  S
N1628      C1629   1.339       .  A
N1628     Cu1634   2.065       .  S
C1629      C1630   1.380       .  A
C1629      H1632   1.081       .  S
C1630      C1631   1.389       .  A
C1631      H1633   1.081       .  S
Cu1634     N1637   2.063       .  S
Cu1635     N1645   2.101       .  S
Cu1636     N1638   2.090       .  S
Cu1636     N1644   2.090       .  S
N1637      N1638   1.320       .  A
N1637      C1641   1.348       .  A
N1638      C1639   1.343       .  A
C1639      C1640   1.393       .  A
C1639      H1642   1.081       .  S
C1640      C1641   1.386       .  A
C1640      C1651   1.488       .  S
C1641      H1643   1.081       .  S
N1644      N1645   1.325       .  A
N1644      C1648   1.347       .  A
N1645      C1646   1.351       .  A
C1646      C1647   1.387       .  A
C1646      H1649   1.082       .  S
C1647      C1648   1.384       .  A
C1647      C1680   1.481       .  S
C1648      H1650   1.082       .  S
C1651      C1652   1.402       .  A
C1651      C1656   1.414       .  A
C1652      C1653   1.399       .  A
C1652      H1657   1.078       .  S
C1653      C1654   1.399       .  A
C1654      C1655   1.402       .  A
C1654      H1658   1.078       .  S
C1655      C1656   1.414       .  A
C1656      H1659   1.082       .  S
N1660      N1661   1.324       .  A
N1660      C1664   1.353       .  A
N1660     Cu1668   2.102       .  S
N1661      C1662   1.340       .  A
N1661     Cu1667   2.069       .  S
C1662      C1663   1.381       .  A
C1662      H1665   1.081       .  S
C1663      C1664   1.390       .  A
C1664      H1666   1.081       .  S
Cu1667     N1670   2.067       .  S
Cu1668     N1678   2.102       .  S
Cu1669     N1671   2.090       .  S
Cu1669     N1677   2.090       .  S
N1670      N1671   1.320       .  A
N1670      C1674   1.349       .  A
N1671      C1672   1.343       .  A
C1672      C1673   1.393       .  A
C1672      H1675   1.081       .  S
C1673      C1674   1.387       .  A
C1673      C1712   1.490       .  S
C1674      H1676   1.081       .  S
N1677      N1678   1.325       .  A
N1677      C1681   1.347       .  A
N1678      C1679   1.351       .  A
C1679      C1680   1.388       .  A
C1679      H1682   1.082       .  S
C1680      C1681   1.384       .  A
C1681      H1683   1.082       .  S
N1684      N1685   1.324       .  A
N1684      C1688   1.354       .  A
N1684     Cu1692   2.108       .  S
N1685      C1686   1.340       .  A
N1685     Cu1691   2.066       .  S
C1686      C1687   1.380       .  A
C1686      H1689   1.081       .  S
C1687      C1688   1.391       .  A
C1688      H1690   1.081       .  S
Cu1691     N1694   2.064       .  S
Cu1692     N1702   2.109       .  S
Cu1693     N1695   2.092       .  S
Cu1693     N1701   2.093       .  S
N1694      N1695   1.320       .  A
N1694      C1698   1.349       .  A
N1695      C1696   1.344       .  A
C1696      C1697   1.393       .  A
C1696      H1699   1.081       .  S
C1697      C1698   1.386       .  A
C1697      C1708   1.490       .  S
C1698      H1700   1.081       .  S
N1701      N1702   1.325       .  A
N1701      C1705   1.348       .  A
N1702      C1703   1.353       .  A
C1703      C1704   1.389       .  A
C1703      H1706   1.082       .  S
C1704      C1705   1.384       .  A
C1704      C1761   1.484       .  S
C1705      H1707   1.082       .  S
C1708      C1709   1.402       .  A
C1708      C1713   1.415       .  A
C1709      C1710   1.400       .  A
C1709      H1714   1.078       .  S
C1710      C1711   1.400       .  A
C1711      C1712   1.402       .  A
C1711      H1715   1.078       .  S
C1712      C1713   1.414       .  A
C1713      H1716   1.082       .  S
N1717      N1718   1.324       .  A
N1717      C1721   1.354       .  A
N1717     Cu1725   2.104       .  S
N1718      C1719   1.340       .  A
N1718     Cu1724   2.065       .  S
C1719      C1720   1.380       .  A
C1719      H1722   1.081       .  S
C1720      C1721   1.390       .  A
C1720      C3852   1.478       .  S
C1721      H1723   1.081       .  S
Cu1724     N1727   2.063       .  S
Cu1725     N1735   2.105       .  S
Cu1726     N1728   2.094       .  S
Cu1726     N1734   2.095       .  S
N1727      N1728   1.320       .  A
N1727      C1731   1.349       .  A
N1728      C1729   1.344       .  A
C1729      C1730   1.394       .  A
C1729      H1732   1.081       .  S
C1730      C1731   1.386       .  A
C1730      C1765   1.490       .  S
C1731      H1733   1.081       .  S
N1734      N1735   1.325       .  A
N1734      C1738   1.348       .  A
N1735      C1736   1.352       .  A
C1736      C1737   1.388       .  A
C1736      H1739   1.082       .  S
C1737      C1738   1.385       .  A
C1737      C1794   1.484       .  S
C1738      H1740   1.082       .  S
N1741      N1742   1.324       .  A
N1741      C1745   1.354       .  A
N1741     Cu1749   2.104       .  S
N1742      C1743   1.340       .  A
N1742     Cu1748   2.065       .  S
C1743      C1744   1.380       .  A
C1743      H1746   1.081       .  S
C1744      C1745   1.390       .  A
C1744      C3876   1.478       .  S
C1745      H1747   1.081       .  S
Cu1748     N1751   2.063       .  S
Cu1749     N1759   2.105       .  S
Cu1750     N1752   2.094       .  S
Cu1750     N1758   2.095       .  S
N1751      N1752   1.320       .  A
N1751      C1755   1.349       .  A
N1752      C1753   1.344       .  A
C1753      C1754   1.394       .  A
C1753      H1756   1.081       .  S
C1754      C1755   1.386       .  A
C1754      C1769   1.490       .  S
C1755      H1757   1.081       .  S
N1758      N1759   1.325       .  A
N1758      C1762   1.348       .  A
N1759      C1760   1.352       .  A
C1760      C1761   1.388       .  A
C1760      H1763   1.082       .  S
C1761      C1762   1.385       .  A
C1762      H1764   1.082       .  S
C1765      C1766   1.402       .  A
C1765      C1770   1.415       .  A
C1766      C1767   1.399       .  A
C1766      H1771   1.078       .  S
C1767      C1768   1.399       .  A
C1768      C1769   1.402       .  A
C1768      H1772   1.078       .  S
C1769      C1770   1.415       .  A
C1770      H1773   1.082       .  S
N1774      N1775   1.324       .  A
N1774      C1778   1.354       .  A
N1774     Cu1782   2.108       .  S
N1775      C1776   1.340       .  A
N1775     Cu1781   2.066       .  S
C1776      C1777   1.380       .  A
C1776      H1779   1.081       .  S
C1777      C1778   1.391       .  A
C1778      H1780   1.081       .  S
Cu1781     N1784   2.064       .  S
Cu1782     N1792   2.109       .  S
Cu1783     N1785   2.092       .  S
Cu1783     N1791   2.092       .  S
N1784      N1785   1.320       .  A
N1784      C1788   1.349       .  A
N1785      C1786   1.344       .  A
C1786      C1787   1.393       .  A
C1786      H1789   1.081       .  S
C1787      C1788   1.386       .  A
C1787      C1822   1.490       .  S
C1788      H1790   1.081       .  S
N1791      N1792   1.325       .  A
N1791      C1795   1.348       .  A
N1792      C1793   1.352       .  A
C1793      C1794   1.389       .  A
C1793      H1796   1.082       .  S
C1794      C1795   1.384       .  A
C1795      H1797   1.082       .  S
N1798      N1799   1.324       .  A
N1798      C1802   1.353       .  A
N1798     Cu1806   2.102       .  S
N1799      C1800   1.340       .  A
N1799     Cu1805   2.069       .  S
C1800      C1801   1.381       .  A
C1800      H1803   1.081       .  S
C1801      C1802   1.390       .  A
C1802      H1804   1.081       .  S
Cu1805     N1808   2.067       .  S
Cu1806     N1816   2.102       .  S
Cu1807     N1809   2.089       .  S
Cu1807     N1815   2.090       .  S
N1808      N1809   1.320       .  A
N1808      C1812   1.349       .  A
N1809      C1810   1.343       .  A
C1810      C1811   1.393       .  A
C1810      H1813   1.081       .  S
C1811      C1812   1.386       .  A
C1811      C1824   1.490       .  S
C1812      H1814   1.081       .  S
N1815      N1816   1.325       .  A
N1815      C1819   1.347       .  A
N1816      C1817   1.351       .  A
C1817      C1818   1.388       .  A
C1817      H1820   1.082       .  S
C1818      C1819   1.384       .  A
C1818      C1908   1.481       .  S
C1819      H1821   1.082       .  S
C1822      C1823   1.415       .  A
C1822      C1827   1.402       .  A
C1823      C1824   1.414       .  A
C1823      H1828   1.082       .  S
C1824      C1825   1.402       .  A
C1825      C1826   1.399       .  A
C1825      H1829   1.078       .  S
C1826      C1827   1.400       .  A
C1827      H1830   1.078       .  S
N1831      N1832   1.323       .  A
N1831      C1835   1.353       .  A
N1831     Cu1839   2.098       .  S
N1832      C1833   1.339       .  A
N1832     Cu1838   2.063       .  S
C1833      C1834   1.380       .  A
C1833      H1836   1.081       .  S
C1834      C1835   1.389       .  A
C1834      C3607   1.476   1_556  S
C1835      H1837   1.081       .  S
Cu1838     N1841   2.061       .  S
Cu1839     N1849   2.099       .  S
Cu1840     N1842   2.090       .  S
Cu1840     N1848   2.091       .  S
N1841      N1842   1.319       .  A
N1841      C1845   1.348       .  A
N1842      C1843   1.343       .  A
C1843      C1844   1.393       .  A
C1843      H1846   1.081       .  S
C1844      C1845   1.385       .  A
C1844      C1879   1.489       .  S
C1845      H1847   1.081       .  S
N1848      N1849   1.325       .  A
N1848      C1852   1.347       .  A
N1849      C1850   1.351       .  A
C1850      C1851   1.387       .  A
C1850      H1853   1.082       .  S
C1851      C1852   1.384       .  A
C1852      H1854   1.082       .  S
N1855      N1856   1.323       .  A
N1855      C1859   1.353       .  A
N1855     Cu1863   2.098       .  S
N1856      C1857   1.339       .  A
N1856     Cu1862   2.063       .  S
C1857      C1858   1.380       .  A
C1857      H1860   1.081       .  S
C1858      C1859   1.389       .  A
C1858      C3631   1.476   1_556  S
C1859      H1861   1.081       .  S
Cu1862     N1865   2.061       .  S
Cu1863     N1873   2.099       .  S
Cu1864     N1866   2.090       .  S
Cu1864     N1872   2.091       .  S
N1865      N1866   1.319       .  A
N1865      C1869   1.348       .  A
N1866      C1867   1.343       .  A
C1867      C1868   1.393       .  A
C1867      H1870   1.081       .  S
C1868      C1869   1.386       .  A
C1868      C1883   1.489       .  S
C1869      H1871   1.081       .  S
N1872      N1873   1.325       .  A
N1872      C1876   1.347       .  A
N1873      C1874   1.351       .  A
C1874      C1875   1.387       .  A
C1874      H1877   1.082       .  S
C1875      C1876   1.384       .  A
C1875      C1932   1.481       .  S
C1876      H1878   1.082       .  S
C1879      C1880   1.402       .  A
C1879      C1884   1.414       .  A
C1880      C1881   1.399       .  A
C1880      H1885   1.078       .  S
C1881      C1882   1.399       .  A
C1882      C1883   1.402       .  A
C1882      H1886   1.078       .  S
C1883      C1884   1.414       .  A
C1884      H1887   1.082       .  S
N1888      N1889   1.323       .  A
N1888      C1892   1.353       .  A
N1888     Cu1896   2.100       .  S
N1889      C1890   1.339       .  A
N1889     Cu1895   2.064       .  S
C1890      C1891   1.380       .  A
C1890      H1893   1.081       .  S
C1891      C1892   1.389       .  A
C1892      H1894   1.081       .  S
Cu1895     N1898   2.062       .  S
Cu1896     N1906   2.101       .  S
Cu1897     N1899   2.090       .  S
Cu1897     N1905   2.090       .  S
N1898      N1899   1.320       .  A
N1898      C1902   1.348       .  A
N1899      C1900   1.343       .  A
C1900      C1901   1.393       .  A
C1900      H1903   1.081       .  S
C1901      C1902   1.386       .  A
C1901      C1936   1.488       .  S
C1902      H1904   1.081       .  S
N1905      N1906   1.325       .  A
N1905      C1909   1.347       .  A
N1906      C1907   1.351       .  A
C1907      C1908   1.387       .  A
C1907      H1910   1.082       .  S
C1908      C1909   1.384       .  A
C1909      H1911   1.082       .  S
N1912      N1913   1.323       .  A
N1912      C1916   1.353       .  A
N1912     Cu1920   2.101       .  S
N1913      C1914   1.339       .  A
N1913     Cu1919   2.063       .  S
C1914      C1915   1.380       .  A
C1914      H1917   1.081       .  S
C1915      C1916   1.390       .  A
C1916      H1918   1.082       .  S
Cu1919     N1922   2.061       .  S
Cu1920     N1930   2.102       .  S
Cu1921     N1923   2.089       .  S
Cu1921     N1929   2.089       .  S
N1922      N1923   1.319       .  A
N1922      C1926   1.348       .  A
N1923      C1924   1.343       .  A
C1924      C1925   1.393       .  A
C1924      H1927   1.081       .  S
C1925      C1926   1.386       .  A
C1925      C1940   1.488       .  S
C1926      H1928   1.081       .  S
N1929      N1930   1.325       .  A
N1929      C1933   1.347       .  A
N1930      C1931   1.351       .  A
C1931      C1932   1.388       .  A
C1931      H1934   1.082       .  S
C1932      C1933   1.384       .  A
C1933      H1935   1.082       .  S
C1936      C1937   1.402       .  A
C1936      C1941   1.414       .  A
C1937      C1938   1.399       .  A
C1937      H1942   1.078       .  S
C1938      C1939   1.399       .  A
C1939      C1940   1.402       .  A
C1939      H1943   1.078       .  S
C1940      C1941   1.414       .  A
C1941      H1944   1.082       .  S
N1945      N1946   1.320       .  A
N1945      C1949   1.340       .  A
N1945     Cu1953   2.047       .  S
N1946      C1947   1.340       .  A
N1946     Cu1952   2.049       .  S
C1947      C1948   1.378       .  A
C1947      H1950   1.082       .  S
C1948      C1949   1.378       .  A
C1948      C2085   1.455       .  S
C1949      H1951   1.082       .  S
Cu1952     N1955   2.050       .  S
Cu1953     N1963   2.047       .  S
Cu1954     N1956   2.050       .  S
Cu1954     N1962   2.049       .  S
N1955      N1956   1.318       .  A
N1955      C1959   1.339       .  A
N1956      C1957   1.339       .  A
C1957      C1958   1.387       .  A
C1957      H1960   1.080       .  S
C1958      C1959   1.387       .  A
C1958      C2310   1.479       .  S
C1959      H1961   1.080       .  S
N1962      N1963   1.320       .  A
N1962      C1966   1.340       .  A
N1963      C1964   1.340       .  A
C1964      C1965   1.378       .  A
C1964      H1967   1.082       .  S
C1965      C1966   1.378       .  A
C1965      C1989   1.455       .  S
C1966      H1968   1.082       .  S
N1969      N1970   1.320       .  A
N1969      C1973   1.339       .  A
N1969     Cu1977   2.044       .  S
N1970      C1971   1.340       .  A
N1970     Cu1976   2.050       .  S
C1971      C1972   1.378       .  A
C1971      H1974   1.081       .  S
C1972      C1973   1.377       .  A
C1972      C2020   1.454       .  S
C1973      H1975   1.082       .  S
Cu1976     N1979   2.051       .  S
Cu1977     N1987   2.043       .  S
Cu1978     N1980   2.053       .  S
Cu1978     N1986   2.053       .  S
N1979      N1980   1.319       .  A
N1979      C1983   1.340       .  A
N1980      C1981   1.340       .  A
C1981      C1982   1.387       .  A
C1981      H1984   1.080       .  S
C1982      C1983   1.386       .  A
C1982      C2196   1.480       .  S
C1983      H1985   1.080       .  S
N1986      N1987   1.320       .  A
N1986      C1990   1.341       .  A
N1987      C1988   1.339       .  A
C1988      C1989   1.377       .  A
C1988      H1991   1.082       .  S
C1989      C1990   1.379       .  A
C1990      H1992   1.082       .  S
N1993      N1994   1.320       .  A
N1993      C1997   1.340       .  A
N1993     Cu2001   2.045       .  S
N1994      C1995   1.340       .  A
N1994     Cu2000   2.051       .  S
C1995      C1996   1.378       .  A
C1995      H1998   1.082       .  S
C1996      C1997   1.378       .  A
C1996      C2061   1.455       .  S
C1997      H1999   1.082       .  S
Cu2000     N2003   2.052       .  S
Cu2001     N2011   2.045       .  S
Cu2002     N2004   2.052       .  S
Cu2002     N2010   2.051       .  S
N2003      N2004   1.318       .  A
N2003      C2007   1.340       .  A
N2004      C2005   1.340       .  A
C2005      C2006   1.387       .  A
C2005      H2008   1.080       .  S
C2006      C2007   1.387       .  A
C2006      C2139   1.481       .  S
C2007      H2009   1.080       .  S
N2010      N2011   1.320       .  A
N2010      C2014   1.340       .  A
N2011      C2012   1.340       .  A
C2012      C2013   1.378       .  A
C2012      H2015   1.082       .  S
C2013      C2014   1.378       .  A
C2013      C2037   1.455       .  S
C2014      H2016   1.082       .  S
N2017      N2018   1.320       .  A
N2017      C2021   1.339       .  A
N2017     Cu2025   2.045       .  S
N2018      C2019   1.340       .  A
N2018     Cu2024   2.049       .  S
C2019      C2020   1.378       .  A
C2019      H2022   1.082       .  S
C2020      C2021   1.378       .  A
C2021      H2023   1.082       .  S
Cu2024     N2027   2.050       .  S
Cu2025     N2035   2.045       .  S
Cu2026     N2028   2.052       .  S
Cu2026     N2034   2.051       .  S
N2027      N2028   1.318       .  A
N2027      C2031   1.340       .  A
N2028      C2029   1.340       .  A
C2029      C2030   1.387       .  A
C2029      H2032   1.080       .  S
C2030      C2031   1.387       .  A
C2030      C2253   1.480       .  S
C2031      H2033   1.080       .  S
N2034      N2035   1.320       .  A
N2034      C2038   1.341       .  A
N2035      C2036   1.339       .  A
C2036      C2037   1.378       .  A
C2036      H2039   1.082       .  S
C2037      C2038   1.379       .  A
C2038      H2040   1.082       .  S
N2041      N2042   1.320       .  A
N2041      C2045   1.339       .  A
N2041     Cu2049   2.045       .  S
N2042      C2043   1.340       .  A
N2042     Cu2048   2.049       .  S
C2043      C2044   1.378       .  A
C2043      H2046   1.082       .  S
C2044      C2045   1.378       .  A
C2044      C2068   1.454       .  S
C2045      H2047   1.082       .  S
Cu2048     N2051   2.050       .  S
Cu2049     N2059   2.045       .  S
Cu2050     N2052   2.052       .  S
Cu2050     N2058   2.051       .  S
N2051      N2052   1.318       .  A
N2051      C2055   1.340       .  A
N2052      C2053   1.340       .  A
C2053      C2054   1.387       .  A
C2053      H2056   1.080       .  S
C2054      C2055   1.387       .  A
C2054      C2424   1.480       .  S
C2055      H2057   1.080       .  S
N2058      N2059   1.320       .  A
N2058      C2062   1.340       .  A
N2059      C2060   1.339       .  A
C2060      C2061   1.378       .  A
C2060      H2063   1.082       .  S
C2061      C2062   1.379       .  A
C2062      H2064   1.082       .  S
N2065      N2066   1.320       .  A
N2065      C2069   1.339       .  A
N2065     Cu2073   2.043       .  S
N2066      C2067   1.340       .  A
N2066     Cu2072   2.050       .  S
C2067      C2068   1.378       .  A
C2067      H2070   1.081       .  S
C2068      C2069   1.377       .  A
C2069      H2071   1.082       .  S
Cu2072     N2075   2.051       .  S
Cu2073     N2083   2.043       .  S
Cu2074     N2076   2.053       .  S
Cu2074     N2082   2.053       .  S
N2075      N2076   1.319       .  A
N2075      C2079   1.340       .  A
N2076      C2077   1.340       .  A
C2077      C2078   1.387       .  A
C2077      H2080   1.080       .  S
C2078      C2079   1.386       .  A
C2078      C2367   1.480       .  S
C2079      H2081   1.080       .  S
N2082      N2083   1.320       .  A
N2082      C2086   1.341       .  A
N2083      C2084   1.339       .  A
C2084      C2085   1.377       .  A
C2084      H2087   1.082       .  S
C2085      C2086   1.379       .  A
C2086      H2088   1.082       .  S
N2089      N2090   1.324       .  A
N2089      C2093   1.354       .  A
N2089     Cu2097   2.103       .  S
N2090      C2091   1.340       .  A
N2090     Cu2096   2.066       .  S
C2091      C2092   1.380       .  A
C2091      H2094   1.081       .  S
C2092      C2093   1.390       .  A
C2093      H2095   1.081       .  S
Cu2096     N2099   2.064       .  S
Cu2097     N2107   2.104       .  S
Cu2098     N2100   2.091       .  S
Cu2098     N2106   2.091       .  S
N2099      N2100   1.320       .  A
N2099      C2103   1.349       .  A
N2100      C2101   1.344       .  A
C2101      C2102   1.393       .  A
C2101      H2104   1.081       .  S
C2102      C2103   1.386       .  A
C2102      C2137   1.489       .  S
C2103      H2105   1.081       .  S
N2106      N2107   1.325       .  A
N2106      C2110   1.347       .  A
N2107      C2108   1.352       .  A
C2108      C2109   1.388       .  A
C2108      H2111   1.082       .  S
C2109      C2110   1.384       .  A
C2109      C2394   1.482       .  S
C2110      H2112   1.082       .  S
N2113      N2114   1.324       .  A
N2113      C2117   1.354       .  A
N2113     Cu2121   2.103       .  S
N2114      C2115   1.340       .  A
N2114     Cu2120   2.066       .  S
C2115      C2116   1.380       .  A
C2115      H2118   1.081       .  S
C2116      C2117   1.390       .  A
C2117      H2119   1.081       .  S
Cu2120     N2123   2.064       .  S
Cu2121     N2131   2.104       .  S
Cu2122     N2124   2.091       .  S
Cu2122     N2130   2.091       .  S
N2123      N2124   1.320       .  A
N2123      C2127   1.349       .  A
N2124      C2125   1.344       .  A
C2125      C2126   1.393       .  A
C2125      H2128   1.081       .  S
C2126      C2127   1.386       .  A
C2126      C2141   1.489       .  S
C2127      H2129   1.081       .  S
N2130      N2131   1.325       .  A
N2130      C2134   1.347       .  A
N2131      C2132   1.352       .  A
C2132      C2133   1.388       .  A
C2132      H2135   1.082       .  S
C2133      C2134   1.384       .  A
C2133      C2223   1.482       .  S
C2134      H2136   1.082       .  S
C2137      C2138   1.402       .  A
C2137      C2142   1.414       .  A
C2138      C2139   1.399       .  A
C2138      H2143   1.078       .  S
C2139      C2140   1.399       .  A
C2140      C2141   1.402       .  A
C2140      H2144   1.078       .  S
C2141      C2142   1.414       .  A
C2142      H2145   1.082       .  S
N2146      N2147   1.324       .  A
N2146      C2150   1.354       .  A
N2146     Cu2154   2.103       .  S
N2147      C2148   1.339       .  A
N2147     Cu2153   2.064       .  S
C2148      C2149   1.380       .  A
C2148      H2151   1.081       .  S
C2149      C2150   1.390       .  A
C2149      C2635   1.478   1_545  S
C2150      H2152   1.081       .  S
Cu2153     N2156   2.062       .  S
Cu2154     N2164   2.104       .  S
Cu2155     N2157   2.088       .  S
Cu2155     N2163   2.089       .  S
N2156      N2157   1.319       .  A
N2156      C2160   1.348       .  A
N2157      C2158   1.343       .  A
C2158      C2159   1.393       .  A
C2158      H2161   1.081       .  S
C2159      C2160   1.386       .  A
C2159      C2198   1.488       .  S
C2160      H2162   1.081       .  S
N2163      N2164   1.325       .  A
N2163      C2167   1.347       .  A
N2164      C2165   1.352       .  A
C2165      C2166   1.388       .  A
C2165      H2168   1.082       .  S
C2166      C2167   1.384       .  A
C2166      C2280   1.482       .  S
C2167      H2169   1.082       .  S
N2170      N2171   1.324       .  A
N2170      C2174   1.353       .  A
N2170     Cu2178   2.100       .  S
N2171      C2172   1.339       .  A
N2171     Cu2177   2.066       .  S
C2172      C2173   1.380       .  A
C2172      H2175   1.081       .  S
C2173      C2174   1.389       .  A
C2173      C2659   1.477   1_545  S
C2174      H2176   1.081       .  S
Cu2177     N2180   2.064       .  S
Cu2178     N2188   2.100       .  S
Cu2179     N2181   2.088       .  S
Cu2179     N2187   2.089       .  S
N2180      N2181   1.320       .  A
N2180      C2184   1.348       .  A
N2181      C2182   1.343       .  A
C2182      C2183   1.393       .  A
C2182      H2185   1.081       .  S
C2183      C2184   1.386       .  A
C2183      C2194   1.489       .  S
C2184      H2186   1.081       .  S
N2187      N2188   1.325       .  A
N2187      C2191   1.347       .  A
N2188      C2189   1.351       .  A
C2189      C2190   1.387       .  A
C2189      H2192   1.082       .  S
C2190      C2191   1.384       .  A
C2190      C2247   1.481       .  S
C2191      H2193   1.082       .  S
C2194      C2195   1.402       .  A
C2194      C2199   1.414       .  A
C2195      C2196   1.399       .  A
C2195      H2200   1.078       .  S
C2196      C2197   1.399       .  A
C2197      C2198   1.401       .  A
C2197      H2201   1.078       .  S
C2198      C2199   1.414       .  A
C2199      H2202   1.082       .  S
N2203      N2204   1.324       .  A
N2203      C2207   1.353       .  A
N2203     Cu2211   2.102       .  S
N2204      C2205   1.339       .  A
N2204     Cu2210   2.064       .  S
C2205      C2206   1.380       .  A
C2205      H2208   1.081       .  S
C2206      C2207   1.390       .  A
C2206      C3178   1.477       .  S
C2207      H2209   1.081       .  S
Cu2210     N2213   2.062       .  S
Cu2211     N2221   2.103       .  S
Cu2212     N2214   2.090       .  S
Cu2212     N2220   2.090       .  S
N2213      N2214   1.319       .  A
N2213      C2217   1.348       .  A
N2214      C2215   1.343       .  A
C2215      C2216   1.393       .  A
C2215      H2218   1.081       .  S
C2216      C2217   1.386       .  A
C2216      C2255   1.488       .  S
C2217      H2219   1.081       .  S
N2220      N2221   1.325       .  A
N2220      C2224   1.347       .  A
N2221      C2222   1.352       .  A
C2222      C2223   1.388       .  A
C2222      H2225   1.082       .  S
C2223      C2224   1.384       .  A
C2224      H2226   1.082       .  S
N2227      N2228   1.323       .  A
N2227      C2231   1.353       .  A
N2227     Cu2235   2.100       .  S
N2228      C2229   1.339       .  A
N2228     Cu2234   2.063       .  S
C2229      C2230   1.380       .  A
C2229      H2232   1.081       .  S
C2230      C2231   1.389       .  A
C2230      C3202   1.476       .  S
C2231      H2233   1.081       .  S
Cu2234     N2237   2.061       .  S
Cu2235     N2245   2.100       .  S
Cu2236     N2238   2.089       .  S
Cu2236     N2244   2.090       .  S
N2237      N2238   1.319       .  A
N2237      C2241   1.348       .  A
N2238      C2239   1.343       .  A
C2239      C2240   1.393       .  A
C2239      H2242   1.081       .  S
C2240      C2241   1.385       .  A
C2240      C2251   1.488       .  S
C2241      H2243   1.081       .  S
N2244      N2245   1.325       .  A
N2244      C2248   1.347       .  A
N2245      C2246   1.351       .  A
C2246      C2247   1.387       .  A
C2246      H2249   1.082       .  S
C2247      C2248   1.384       .  A
C2248      H2250   1.082       .  S
C2251      C2252   1.401       .  A
C2251      C2256   1.414       .  A
C2252      C2253   1.399       .  A
C2252      H2257   1.078       .  S
C2253      C2254   1.399       .  A
C2254      C2255   1.401       .  A
C2254      H2258   1.078       .  S
C2255      C2256   1.414       .  A
C2256      H2259   1.082       .  S
N2260      N2261   1.323       .  A
N2260      C2264   1.353       .  A
N2260     Cu2268   2.101       .  S
N2261      C2262   1.339       .  A
N2261     Cu2267   2.063       .  S
C2262      C2263   1.380       .  A
C2262      H2265   1.081       .  S
C2263      C2264   1.389       .  A
C2264      H2266   1.081       .  S
Cu2267     N2270   2.061       .  S
Cu2268     N2278   2.101       .  S
Cu2269     N2271   2.091       .  S
Cu2269     N2277   2.092       .  S
N2270      N2271   1.320       .  A
N2270      C2274   1.348       .  A
N2271      C2272   1.343       .  A
C2272      C2273   1.393       .  A
C2272      H2275   1.081       .  S
C2273      C2274   1.385       .  A
C2273      C2312   1.489       .  S
C2274      H2276   1.081       .  S
N2277      N2278   1.325       .  A
N2277      C2281   1.347       .  A
N2278      C2279   1.351       .  A
C2279      C2280   1.387       .  A
C2279      H2282   1.082       .  S
C2280      C2281   1.384       .  A
C2281      H2283   1.082       .  S
N2284      N2285   1.323       .  A
N2284      C2288   1.353       .  A
N2284     Cu2292   2.100       .  S
N2285      C2286   1.339       .  A
N2285     Cu2291   2.063       .  S
C2286      C2287   1.380       .  A
C2286      H2289   1.081       .  S
C2287      C2288   1.389       .  A
C2288      H2290   1.081       .  S
Cu2291     N2294   2.061       .  S
Cu2292     N2302   2.101       .  S
Cu2293     N2295   2.091       .  S
Cu2293     N2301   2.092       .  S
N2294      N2295   1.320       .  A
N2294      C2298   1.348       .  A
N2295      C2296   1.343       .  A
C2296      C2297   1.393       .  A
C2296      H2299   1.081       .  S
C2297      C2298   1.385       .  A
C2297      C2308   1.489       .  S
C2298      H2300   1.081       .  S
N2301      N2302   1.325       .  A
N2301      C2305   1.347       .  A
N2302      C2303   1.351       .  A
C2303      C2304   1.387       .  A
C2303      H2306   1.082       .  S
C2304      C2305   1.384       .  A
C2304      C2337   1.482       .  S
C2305      H2307   1.082       .  S
C2308      C2309   1.401       .  A
C2308      C2313   1.414       .  A
C2309      C2310   1.399       .  A
C2309      H2314   1.078       .  S
C2310      C2311   1.399       .  A
C2311      C2312   1.401       .  A
C2311      H2315   1.078       .  S
C2312      C2313   1.414       .  A
C2313      H2316   1.082       .  S
N2317      N2318   1.324       .  A
N2317      C2321   1.354       .  A
N2317     Cu2325   2.103       .  S
N2318      C2319   1.339       .  A
N2318     Cu2324   2.064       .  S
C2319      C2320   1.380       .  A
C2319      H2322   1.081       .  S
C2320      C2321   1.390       .  A
C2320      C3316   1.478   1_655  S
C2321      H2323   1.081       .  S
Cu2324     N2327   2.062       .  S
Cu2325     N2335   2.104       .  S
Cu2326     N2328   2.088       .  S
Cu2326     N2334   2.089       .  S
N2327      N2328   1.319       .  A
N2327      C2331   1.348       .  A
N2328      C2329   1.343       .  A
C2329      C2330   1.393       .  A
C2329      H2332   1.081       .  S
C2330      C2331   1.386       .  A
C2330      C2369   1.488       .  S
C2331      H2333   1.081       .  S
N2334      N2335   1.325       .  A
N2334      C2338   1.347       .  A
N2335      C2336   1.352       .  A
C2336      C2337   1.388       .  A
C2336      H2339   1.082       .  S
C2337      C2338   1.384       .  A
C2338      H2340   1.082       .  S
N2341      N2342   1.324       .  A
N2341      C2345   1.353       .  A
N2341     Cu2349   2.100       .  S
N2342      C2343   1.339       .  A
N2342     Cu2348   2.065       .  S
C2343      C2344   1.380       .  A
C2343      H2346   1.081       .  S
C2344      C2345   1.389       .  A
C2344      C3292   1.477   1_655  S
C2345      H2347   1.081       .  S
Cu2348     N2351   2.063       .  S
Cu2349     N2359   2.100       .  S
Cu2350     N2352   2.088       .  S
Cu2350     N2358   2.089       .  S
N2351      N2352   1.319       .  A
N2351      C2355   1.348       .  A
N2352      C2353   1.343       .  A
C2353      C2354   1.392       .  A
C2353      H2356   1.081       .  S
C2354      C2355   1.386       .  A
C2354      C2365   1.489       .  S
C2355      H2357   1.081       .  S
N2358      N2359   1.325       .  A
N2358      C2362   1.347       .  A
N2359      C2360   1.351       .  A
C2360      C2361   1.387       .  A
C2360      H2363   1.082       .  S
C2361      C2362   1.384       .  A
C2361      C2418   1.481       .  S
C2362      H2364   1.082       .  S
C2365      C2366   1.402       .  A
C2365      C2370   1.414       .  A
C2366      C2367   1.399       .  A
C2366      H2371   1.078       .  S
C2367      C2368   1.399       .  A
C2368      C2369   1.401       .  A
C2368      H2372   1.078       .  S
C2369      C2370   1.414       .  A
C2370      H2373   1.082       .  S
N2374      N2375   1.324       .  A
N2374      C2378   1.353       .  A
N2374     Cu2382   2.102       .  S
N2375      C2376   1.339       .  A
N2375     Cu2381   2.064       .  S
C2376      C2377   1.380       .  A
C2376      H2379   1.081       .  S
C2377      C2378   1.390       .  A
C2377      C2863   1.477       .  S
C2378      H2380   1.081       .  S
Cu2381     N2384   2.062       .  S
Cu2382     N2392   2.103       .  S
Cu2383     N2385   2.090       .  S
Cu2383     N2391   2.090       .  S
N2384      N2385   1.319       .  A
N2384      C2388   1.348       .  A
N2385      C2386   1.343       .  A
C2386      C2387   1.393       .  A
C2386      H2389   1.081       .  S
C2387      C2388   1.386       .  A
C2387      C2426   1.488       .  S
C2388      H2390   1.081       .  S
N2391      N2392   1.325       .  A
N2391      C2395   1.347       .  A
N2392      C2393   1.352       .  A
C2393      C2394   1.388       .  A
C2393      H2396   1.082       .  S
C2394      C2395   1.384       .  A
C2395      H2397   1.082       .  S
N2398      N2399   1.323       .  A
N2398      C2402   1.353       .  A
N2398     Cu2406   2.099       .  S
N2399      C2400   1.339       .  A
N2399     Cu2405   2.063       .  S
C2400      C2401   1.380       .  A
C2400      H2403   1.081       .  S
C2401      C2402   1.389       .  A
C2401      C2887   1.476       .  S
C2402      H2404   1.081       .  S
Cu2405     N2408   2.061       .  S
Cu2406     N2416   2.100       .  S
Cu2407     N2409   2.089       .  S
Cu2407     N2415   2.090       .  S
N2408      N2409   1.319       .  A
N2408      C2412   1.348       .  A
N2409      C2410   1.343       .  A
C2410      C2411   1.393       .  A
C2410      H2413   1.081       .  S
C2411      C2412   1.385       .  A
C2411      C2422   1.488       .  S
C2412      H2414   1.081       .  S
N2415      N2416   1.325       .  A
N2415      C2419   1.347       .  A
N2416      C2417   1.351       .  A
C2417      C2418   1.387       .  A
C2417      H2420   1.082       .  S
C2418      C2419   1.384       .  A
C2419      H2421   1.082       .  S
C2422      C2423   1.401       .  A
C2422      C2427   1.414       .  A
C2423      C2424   1.399       .  A
C2423      H2428   1.078       .  S
C2424      C2425   1.399       .  A
C2425      C2426   1.401       .  A
C2425      H2429   1.078       .  S
C2426      C2427   1.414       .  A
C2427      H2430   1.082       .  S
N2431      N2432   1.320       .  A
N2431      C2435   1.339       .  A
N2431     Cu2439   2.043       .  S
N2432      C2433   1.340       .  A
N2432     Cu2438   2.049       .  S
C2433      C2434   1.378       .  A
C2433      H2436   1.082       .  S
C2434      C2435   1.377       .  A
C2434      C2475   1.453       .  S
C2435      H2437   1.082       .  S
Cu2438     N2441   2.050       .  S
Cu2439     N2449   2.043       .  S
Cu2440     N2442   2.049       .  S
Cu2440     N2448   2.048       .  S
N2441      N2442   1.318       .  A
N2441      C2445   1.340       .  A
N2442      C2443   1.339       .  A
C2443      C2444   1.386       .  A
C2443      H2446   1.080       .  S
C2444      C2445   1.387       .  A
C2444      C2796   1.479       .  S
C2445      H2447   1.080       .  S
N2448      N2449   1.320       .  A
N2448      C2452   1.340       .  A
N2449      C2450   1.339       .  A
C2450      C2451   1.377       .  A
C2450      H2453   1.082       .  S
C2451      C2452   1.378       .  A
C2451      C2523   1.453       .  S
C2452      H2454   1.082       .  S
N2455      N2456   1.320       .  A
N2455      C2459   1.339       .  A
N2455     Cu2463   2.044       .  S
N2456      C2457   1.340       .  A
N2456     Cu2462   2.049       .  S
C2457      C2458   1.378       .  A
C2457      H2460   1.082       .  S
C2458      C2459   1.377       .  A
C2458      C2482   1.454       .  S
C2459      H2461   1.082       .  S
Cu2462     N2465   2.050       .  S
Cu2463     N2473   2.044       .  S
Cu2464     N2466   2.048       .  S
Cu2464     N2472   2.047       .  S
N2465      N2466   1.318       .  A
N2465      C2469   1.339       .  A
N2466      C2467   1.339       .  A
C2467      C2468   1.386       .  A
C2467      H2470   1.080       .  S
C2468      C2469   1.387       .  A
C2468      C2739   1.479       .  S
C2469      H2471   1.080       .  S
N2472      N2473   1.320       .  A
N2472      C2476   1.340       .  A
N2473      C2474   1.339       .  A
C2474      C2475   1.377       .  A
C2474      H2477   1.082       .  S
C2475      C2476   1.378       .  A
C2476      H2478   1.082       .  S
N2479      N2480   1.320       .  A
N2479      C2483   1.339       .  A
N2479     Cu2487   2.043       .  S
N2480      C2481   1.340       .  A
N2480     Cu2486   2.049       .  S
C2481      C2482   1.378       .  A
C2481      H2484   1.082       .  S
C2482      C2483   1.377       .  A
C2483      H2485   1.082       .  S
Cu2486     N2489   2.050       .  S
Cu2487     N2497   2.043       .  S
Cu2488     N2490   2.053       .  S
Cu2488     N2496   2.052       .  S
N2489      N2490   1.318       .  A
N2489      C2493   1.339       .  A
N2490      C2491   1.340       .  A
C2491      C2492   1.387       .  A
C2491      H2494   1.080       .  S
C2492      C2493   1.386       .  A
C2492      C2682   1.480       .  S
C2493      H2495   1.080       .  S
N2496      N2497   1.320       .  A
N2496      C2500   1.341       .  A
N2497      C2498   1.339       .  A
C2498      C2499   1.377       .  A
C2498      H2501   1.082       .  S
C2499      C2500   1.379       .  A
C2499      C2554   1.455       .  S
C2500      H2502   1.082       .  S
N2503      N2504   1.320       .  A
N2503      C2507   1.339       .  A
N2503     Cu2511   2.042       .  S
N2504      C2505   1.340       .  A
N2504     Cu2510   2.048       .  S
C2505      C2506   1.378       .  A
C2505      H2508   1.082       .  S
C2506      C2507   1.377       .  A
C2506      C2530   1.453       .  S
C2507      H2509   1.082       .  S
Cu2510     N2513   2.049       .  S
Cu2511     N2521   2.042       .  S
Cu2512     N2514   2.051       .  S
Cu2512     N2520   2.050       .  S
N2513      N2514   1.318       .  A
N2513      C2517   1.339       .  A
N2514      C2515   1.339       .  A
C2515      C2516   1.387       .  A
C2515      H2518   1.080       .  S
C2516      C2517   1.386       .  A
C2516      C2910   1.479       .  S
C2517      H2519   1.080       .  S
N2520      N2521   1.320       .  A
N2520      C2524   1.340       .  A
N2521      C2522   1.339       .  A
C2522      C2523   1.377       .  A
C2522      H2525   1.082       .  S
C2523      C2524   1.378       .  A
C2524      H2526   1.082       .  S
N2527      N2528   1.320       .  A
N2527      C2531   1.339       .  A
N2527     Cu2535   2.042       .  S
N2528      C2529   1.340       .  A
N2528     Cu2534   2.047       .  S
C2529      C2530   1.378       .  A
C2529      H2532   1.082       .  S
C2530      C2531   1.377       .  A
C2531      H2533   1.082       .  S
Cu2534     N2537   2.048       .  S
Cu2535     N2545   2.042       .  S
Cu2536     N2538   2.053       .  S
Cu2536     N2544   2.053       .  S
N2537      N2538   1.318       .  A
N2537      C2541   1.340       .  A
N2538      C2539   1.340       .  A
C2539      C2540   1.387       .  A
C2539      H2542   1.080       .  S
C2540      C2541   1.386       .  A
C2540      C2855   1.479       .  S
C2541      H2543   1.080       .  S
N2544      N2545   1.320       .  A
N2544      C2548   1.341       .  A
N2545      C2546   1.339       .  A
C2546      C2547   1.377       .  A
C2546      H2549   1.082       .  S
C2547      C2548   1.379       .  A
C2547      C2571   1.454       .  S
C2548      H2550   1.082       .  S
N2551      N2552   1.321       .  A
N2551      C2555   1.340       .  A
N2551     Cu2559   2.047       .  S
N2552      C2553   1.340       .  A
N2552     Cu2558   2.050       .  S
C2553      C2554   1.378       .  A
C2553      H2556   1.081       .  S
C2554      C2555   1.378       .  A
C2555      H2557   1.082       .  S
Cu2558     N2561   2.051       .  S
Cu2559     N2569   2.047       .  S
Cu2560     N2562   2.050       .  S
Cu2560     N2568   2.049       .  S
N2561      N2562   1.318       .  A
N2561      C2565   1.340       .  A
N2562      C2563   1.339       .  A
C2563      C2564   1.387       .  A
C2563      H2566   1.080       .  S
C2564      C2565   1.387       .  A
C2564      C2625   1.480       .  S
C2565      H2567   1.080       .  S
N2568      N2569   1.321       .  A
N2568      C2572   1.340       .  A
N2569      C2570   1.340       .  A
C2570      C2571   1.378       .  A
C2570      H2573   1.082       .  S
C2571      C2572   1.378       .  A
C2572      H2574   1.082       .  S
N2575      N2576   1.324       .  A
N2575      C2579   1.353       .  A
N2575     Cu2583   2.101       .  S
N2576      C2577   1.340       .  A
N2576     Cu2582   2.066       .  S
C2577      C2578   1.380       .  A
C2577      H2580   1.081       .  S
C2578      C2579   1.389       .  A
C2579      H2581   1.081       .  S
Cu2582     N2585   2.064       .  S
Cu2583     N2593   2.101       .  S
Cu2584     N2586   2.092       .  S
Cu2584     N2592   2.092       .  S
N2585      N2586   1.320       .  A
N2585      C2589   1.349       .  A
N2586      C2587   1.344       .  A
C2587      C2588   1.393       .  A
C2587      H2590   1.081       .  S
C2588      C2589   1.386       .  A
C2588      C2623   1.490       .  S
C2589      H2591   1.081       .  S
N2592      N2593   1.325       .  A
N2592      C2596   1.347       .  A
N2593      C2594   1.351       .  A
C2594      C2595   1.387       .  A
C2594      H2597   1.082       .  S
C2595      C2596   1.385       .  A
C2595      C2652   1.482       .  S
C2596      H2598   1.082       .  S
N2599      N2600   1.323       .  A
N2599      C2603   1.354       .  A
N2599     Cu2607   2.105       .  S
N2600      C2601   1.340       .  A
N2600     Cu2606   2.064       .  S
C2601      C2602   1.380       .  A
C2601      H2604   1.081       .  S
C2602      C2603   1.391       .  A
C2603      H2605   1.081       .  S
Cu2606     N2609   2.062       .  S
Cu2607     N2617   2.106       .  S
Cu2608     N2610   2.093       .  S
Cu2608     N2616   2.094       .  S
N2609      N2610   1.320       .  A
N2609      C2613   1.349       .  A
N2610      C2611   1.344       .  A
C2611      C2612   1.394       .  A
C2611      H2614   1.081       .  S
C2612      C2613   1.385       .  A
C2612      C2627   1.490       .  S
C2613      H2615   1.081       .  S
N2616      N2617   1.325       .  A
N2616      C2620   1.348       .  A
N2617      C2618   1.352       .  A
C2618      C2619   1.388       .  A
C2618      H2621   1.082       .  S
C2619      C2620   1.385       .  A
C2619      C2823   1.483       .  S
C2620      H2622   1.082       .  S
C2623      C2624   1.402       .  A
C2623      C2628   1.415       .  A
C2624      C2625   1.399       .  A
C2624      H2629   1.078       .  S
C2625      C2626   1.399       .  A
C2626      C2627   1.401       .  A
C2626      H2630   1.078       .  S
C2627      C2628   1.415       .  A
C2628      H2631   1.082       .  S
N2632      N2633   1.324       .  A
N2632      C2636   1.353       .  A
N2632     Cu2640   2.103       .  S
N2633      C2634   1.339       .  A
N2633     Cu2639   2.065       .  S
C2634      C2635   1.380       .  A
C2634      H2637   1.081       .  S
C2635      C2636   1.390       .  A
C2636      H2638   1.081       .  S
Cu2639     N2642   2.063       .  S
Cu2640     N2650   2.104       .  S
Cu2641     N2643   2.088       .  S
Cu2641     N2649   2.089       .  S
N2642      N2643   1.319       .  A
N2642      C2646   1.349       .  A
N2643      C2644   1.343       .  A
C2644      C2645   1.392       .  A
C2644      H2647   1.081       .  S
C2645      C2646   1.386       .  A
C2645      C2680   1.488       .  S
C2646      H2648   1.081       .  S
N2649      N2650   1.325       .  A
N2649      C2653   1.347       .  A
N2650      C2651   1.351       .  A
C2651      C2652   1.388       .  A
C2651      H2654   1.082       .  S
C2652      C2653   1.384       .  A
C2653      H2655   1.082       .  S
N2656      N2657   1.323       .  A
N2656      C2660   1.353       .  A
N2656     Cu2664   2.101       .  S
N2657      C2658   1.339       .  A
N2657     Cu2663   2.063       .  S
C2658      C2659   1.380       .  A
C2658      H2661   1.081       .  S
C2659      C2660   1.390       .  A
C2660      H2662   1.081       .  S
Cu2663     N2666   2.061       .  S
Cu2664     N2674   2.102       .  S
Cu2665     N2667   2.089       .  S
Cu2665     N2673   2.089       .  S
N2666      N2667   1.319       .  A
N2666      C2670   1.348       .  A
N2667      C2668   1.343       .  A
C2668      C2669   1.393       .  A
C2668      H2671   1.081       .  S
C2669      C2670   1.385       .  A
C2669      C2684   1.488       .  S
C2670      H2672   1.081       .  S
N2673      N2674   1.325       .  A
N2673      C2677   1.347       .  A
N2674      C2675   1.351       .  A
C2675      C2676   1.388       .  A
C2675      H2678   1.082       .  S
C2676      C2677   1.384       .  A
C2676      C2733   1.481       .  S
C2677      H2679   1.082       .  S
C2680      C2681   1.402       .  A
C2680      C2685   1.414       .  A
C2681      C2682   1.399       .  A
C2681      H2686   1.078       .  S
C2682      C2683   1.399       .  A
C2683      C2684   1.402       .  A
C2683      H2687   1.078       .  S
C2684      C2685   1.414       .  A
C2685      H2688   1.082       .  S
N2689      N2690   1.323       .  A
N2689      C2693   1.352       .  A
N2689     Cu2697   2.094       .  S
N2690      C2691   1.339       .  A
N2690     Cu2696   2.064       .  S
C2691      C2692   1.380       .  A
C2691      H2694   1.081       .  S
C2692      C2693   1.388       .  A
C2692      C3721   1.475       .  S
C2693      H2695   1.081       .  S
Cu2696     N2699   2.062       .  S
Cu2697     N2707   2.095       .  S
Cu2698     N2700   2.088       .  S
Cu2698     N2706   2.088       .  S
N2699      N2700   1.320       .  A
N2699      C2703   1.348       .  A
N2700      C2701   1.343       .  A
C2701      C2702   1.392       .  A
C2701      H2704   1.081       .  S
C2702      C2703   1.386       .  A
C2702      C2737   1.488       .  S
C2703      H2705   1.081       .  S
N2706      N2707   1.324       .  A
N2706      C2710   1.347       .  A
N2707      C2708   1.350       .  A
C2708      C2709   1.386       .  A
C2708      H2711   1.082       .  S
C2709      C2710   1.384       .  A
C2709      C2766   1.479       .  S
C2710      H2712   1.082       .  S
N2713      N2714   1.323       .  A
N2713      C2717   1.353       .  A
N2713     Cu2721   2.100       .  S
N2714      C2715   1.338       .  A
N2714     Cu2720   2.057       .  S
C2715      C2716   1.378       .  A
C2715      H2718   1.081       .  S
C2716      C2717   1.390       .  A
C2716      C3745   1.475       .  S
C2717      H2719   1.081       .  S
Cu2720     N2723   2.055       .  S
Cu2721     N2731   2.101       .  S
Cu2722     N2724   2.089       .  S
Cu2722     N2730   2.090       .  S
N2723      N2724   1.319       .  A
N2723      C2727   1.347       .  A
N2724      C2725   1.343       .  A
C2725      C2726   1.393       .  A
C2725      H2728   1.081       .  S
C2726      C2727   1.384       .  A
C2726      C2741   1.487       .  S
C2727      H2729   1.081       .  S
N2730      N2731   1.325       .  A
N2730      C2734   1.347       .  A
N2731      C2732   1.351       .  A
C2732      C2733   1.387       .  A
C2732      H2735   1.082       .  S
C2733      C2734   1.384       .  A
C2734      H2736   1.082       .  S
C2737      C2738   1.402       .  A
C2737      C2742   1.414       .  A
C2738      C2739   1.399       .  A
C2738      H2743   1.078       .  S
C2739      C2740   1.398       .  A
C2740      C2741   1.400       .  A
C2740      H2744   1.078       .  S
C2741      C2742   1.414       .  A
C2742      H2745   1.082       .  S
N2746      N2747   1.323       .  A
N2746      C2750   1.353       .  A
N2746     Cu2754   2.100       .  S
N2747      C2748   1.339       .  A
N2747     Cu2753   2.063       .  S
C2748      C2749   1.380       .  A
C2748      H2751   1.081       .  S
C2749      C2750   1.389       .  A
C2750      H2752   1.081       .  S
Cu2753     N2756   2.061       .  S
Cu2754     N2764   2.100       .  S
Cu2755     N2757   2.085       .  S
Cu2755     N2763   2.086       .  S
N2756      N2757   1.319       .  A
N2756      C2760   1.348       .  A
N2757      C2758   1.343       .  A
C2758      C2759   1.392       .  A
C2758      H2761   1.081       .  S
C2759      C2760   1.385       .  A
C2759      C2794   1.487       .  S
C2760      H2762   1.081       .  S
N2763      N2764   1.325       .  A
N2763      C2767   1.346       .  A
N2764      C2765   1.351       .  A
C2765      C2766   1.387       .  A
C2765      H2768   1.082       .  S
C2766      C2767   1.383       .  A
C2767      H2769   1.082       .  S
N2770      N2771   1.323       .  A
N2770      C2774   1.353       .  A
N2770     Cu2778   2.101       .  S
N2771      C2772   1.340       .  A
N2771     Cu2777   2.065       .  S
C2772      C2773   1.380       .  A
C2772      H2775   1.081       .  S
C2773      C2774   1.389       .  A
C2774      H2776   1.081       .  S
Cu2777     N2780   2.063       .  S
Cu2778     N2788   2.102       .  S
Cu2779     N2781   2.088       .  S
Cu2779     N2787   2.088       .  S
N2780      N2781   1.320       .  A
N2780      C2784   1.348       .  A
N2781      C2782   1.343       .  A
C2782      C2783   1.392       .  A
C2782      H2785   1.081       .  S
C2783      C2784   1.386       .  A
C2783      C2798   1.488       .  S
C2784      H2786   1.081       .  S
N2787      N2788   1.325       .  A
N2787      C2791   1.347       .  A
N2788      C2789   1.351       .  A
C2789      C2790   1.387       .  A
C2789      H2792   1.082       .  S
C2790      C2791   1.384       .  A
C2790      C2880   1.481       .  S
C2791      H2793   1.082       .  S
C2794      C2795   1.401       .  A
C2794      C2799   1.413       .  A
C2795      C2796   1.399       .  A
C2795      H2800   1.078       .  S
C2796      C2797   1.399       .  A
C2797      C2798   1.402       .  A
C2797      H2801   1.078       .  S
C2798      C2799   1.413       .  A
C2799      H2802   1.082       .  S
N2803      N2804   1.323       .  A
N2803      C2807   1.354       .  A
N2803     Cu2811   2.105       .  S
N2804      C2805   1.339       .  A
N2804     Cu2810   2.060       .  S
C2805      C2806   1.379       .  A
C2805      H2808   1.081       .  S
C2806      C2807   1.390       .  A
C2806      C3567   1.477   1_655  S
C2807      H2809   1.081       .  S
Cu2810     N2813   2.058       .  S
Cu2811     N2821   2.106       .  S
Cu2812     N2814   2.090       .  S
Cu2812     N2820   2.091       .  S
N2813      N2814   1.319       .  A
N2813      C2817   1.348       .  A
N2814      C2815   1.343       .  A
C2815      C2816   1.393       .  A
C2815      H2818   1.081       .  S
C2816      C2817   1.385       .  A
C2816      C2853   1.487       .  S
C2817      H2819   1.081       .  S
N2820      N2821   1.325       .  A
N2820      C2824   1.347       .  A
N2821      C2822   1.352       .  A
C2822      C2823   1.389       .  A
C2822      H2825   1.082       .  S
C2823      C2824   1.384       .  A
C2824      H2826   1.082       .  S
N2827      N2828   1.325       .  A
N2827      C2831   1.351       .  A
N2827     Cu2835   2.097       .  S
N2828      C2829   1.346       .  A
N2828     Cu2834   2.088       .  S
C2829      C2830   1.383       .  A
C2829      H2832   1.082       .  S
C2830      C2831   1.387       .  A
C2830      C2904   1.479       .  S
C2831      H2833   1.082       .  S
Cu2834     N2837   2.088       .  S
Cu2835     N2845   2.097       .  S
Cu2836     N2838   2.063       .  S
Cu2836     N2844   2.064       .  S
N2837      N2838   1.319       .  A
N2837      C2841   1.343       .  A
N2838      C2839   1.348       .  A
C2839      C2840   1.386       .  A
C2839      H2842   1.081       .  S
C2840      C2841   1.392       .  A
C2840      C2851   1.488       .  S
C2841      H2843   1.081       .  S
N2844      N2845   1.323       .  A
N2844      C2848   1.339       .  A
N2845      C2846   1.352       .  A
C2846      C2847   1.388       .  A
C2846      H2849   1.081       .  S
C2847      C2848   1.380       .  A
C2847      C3591   1.475   1_655  S
C2848      H2850   1.081       .  S
C2851      C2852   1.414       .  A
C2851      C2856   1.402       .  A
C2852      C2853   1.414       .  A
C2852      H2857   1.082       .  S
C2853      C2854   1.401       .  A
C2854      C2855   1.398       .  A
C2854      H2858   1.078       .  S
C2855      C2856   1.399       .  A
C2856      H2859   1.078       .  S
N2860      N2861   1.323       .  A
N2860      C2864   1.353       .  A
N2860     Cu2868   2.102       .  S
N2861      C2862   1.339       .  A
N2861     Cu2867   2.063       .  S
C2862      C2863   1.380       .  A
C2862      H2865   1.081       .  S
C2863      C2864   1.390       .  A
C2864      H2866   1.081       .  S
Cu2867     N2870   2.061       .  S
Cu2868     N2878   2.102       .  S
Cu2869     N2871   2.087       .  S
Cu2869     N2877   2.088       .  S
N2870      N2871   1.319       .  A
N2870      C2874   1.348       .  A
N2871      C2872   1.343       .  A
C2872      C2873   1.392       .  A
C2872      H2875   1.081       .  S
C2873      C2874   1.385       .  A
C2873      C2912   1.487       .  S
C2874      H2876   1.081       .  S
N2877      N2878   1.325       .  A
N2877      C2881   1.347       .  A
N2878      C2879   1.351       .  A
C2879      C2880   1.388       .  A
C2879      H2882   1.082       .  S
C2880      C2881   1.384       .  A
C2881      H2883   1.082       .  S
N2884      N2885   1.323       .  A
N2884      C2888   1.353       .  A
N2884     Cu2892   2.099       .  S
N2885      C2886   1.339       .  A
N2885     Cu2891   2.063       .  S
C2886      C2887   1.380       .  A
C2886      H2889   1.081       .  S
C2887      C2888   1.389       .  A
C2888      H2890   1.081       .  S
Cu2891     N2894   2.061       .  S
Cu2892     N2902   2.099       .  S
Cu2893     N2895   2.087       .  S
Cu2893     N2901   2.087       .  S
N2894      N2895   1.319       .  A
N2894      C2898   1.348       .  A
N2895      C2896   1.343       .  A
C2896      C2897   1.392       .  A
C2896      H2899   1.081       .  S
C2897      C2898   1.385       .  A
C2897      C2908   1.487       .  S
C2898      H2900   1.081       .  S
N2901      N2902   1.325       .  A
N2901      C2905   1.346       .  A
N2902      C2903   1.351       .  A
C2903      C2904   1.387       .  A
C2903      H2906   1.082       .  S
C2904      C2905   1.383       .  A
C2905      H2907   1.082       .  S
C2908      C2909   1.402       .  A
C2908      C2913   1.414       .  A
C2909      C2910   1.399       .  A
C2909      H2914   1.078       .  S
C2910      C2911   1.399       .  A
C2911      C2912   1.401       .  A
C2911      H2915   1.078       .  S
C2912      C2913   1.413       .  A
C2913      H2916   1.082       .  S
N2917      N2918   1.320       .  A
N2917      C2921   1.339       .  A
N2917     Cu2925   2.044       .  S
N2918      C2919   1.340       .  A
N2918     Cu2924   2.049       .  S
C2919      C2920   1.378       .  A
C2919      H2922   1.082       .  S
C2920      C2921   1.377       .  A
C2920      C2992   1.454       .  S
C2921      H2923   1.082       .  S
Cu2924     N2927   2.050       .  S
Cu2925     N2935   2.044       .  S
Cu2926     N2928   2.048       .  S
Cu2926     N2934   2.047       .  S
N2927      N2928   1.318       .  A
N2927      C2931   1.339       .  A
N2928      C2929   1.339       .  A
C2929      C2930   1.386       .  A
C2929      H2932   1.080       .  S
C2930      C2931   1.387       .  A
C2930      C3111   1.479       .  S
C2931      H2933   1.080       .  S
N2934      N2935   1.320       .  A
N2934      C2938   1.340       .  A
N2935      C2936   1.339       .  A
C2936      C2937   1.377       .  A
C2936      H2939   1.082       .  S
C2937      C2938   1.378       .  A
C2937      C3040   1.453       .  S
C2938      H2940   1.082       .  S
N2941      N2942   1.320       .  A
N2941      C2945   1.339       .  A
N2941     Cu2949   2.042       .  S
N2942      C2943   1.340       .  A
N2942     Cu2948   2.048       .  S
C2943      C2944   1.378       .  A
C2943      H2946   1.082       .  S
C2944      C2945   1.377       .  A
C2944      C3016   1.453       .  S
C2945      H2947   1.082       .  S
Cu2948     N2951   2.049       .  S
Cu2949     N2959   2.042       .  S
Cu2950     N2952   2.051       .  S
Cu2950     N2958   2.050       .  S
N2951      N2952   1.318       .  A
N2951      C2955   1.339       .  A
N2952      C2953   1.339       .  A
C2953      C2954   1.387       .  A
C2953      H2956   1.080       .  S
C2954      C2955   1.386       .  A
C2954      C3225   1.479       .  S
C2955      H2957   1.080       .  S
N2958      N2959   1.320       .  A
N2958      C2962   1.340       .  A
N2959      C2960   1.339       .  A
C2960      C2961   1.377       .  A
C2960      H2963   1.082       .  S
C2961      C2962   1.378       .  A
C2961      C3057   1.453       .  S
C2962      H2964   1.082       .  S
N2965      N2966   1.321       .  A
N2965      C2969   1.340       .  A
N2965     Cu2973   2.047       .  S
N2966      C2967   1.340       .  A
N2966     Cu2972   2.050       .  S
C2967      C2968   1.378       .  A
C2967      H2970   1.082       .  S
C2968      C2969   1.378       .  A
C2968      C3009   1.455       .  S
C2969      H2971   1.082       .  S
Cu2972     N2975   2.051       .  S
Cu2973     N2983   2.047       .  S
Cu2974     N2976   2.050       .  S
Cu2974     N2982   2.049       .  S
N2975      N2976   1.318       .  A
N2975      C2979   1.340       .  A
N2976      C2977   1.339       .  A
C2977      C2978   1.387       .  A
C2977      H2980   1.080       .  S
C2978      C2979   1.387       .  A
C2978      C3396   1.480       .  S
C2979      H2981   1.080       .  S
N2982      N2983   1.321       .  A
N2982      C2986   1.340       .  A
N2983      C2984   1.340       .  A
C2984      C2985   1.378       .  A
C2984      H2987   1.082       .  S
C2985      C2986   1.378       .  A
C2985      C3033   1.454       .  S
C2986      H2988   1.082       .  S
N2989      N2990   1.320       .  A
N2989      C2993   1.339       .  A
N2989     Cu2997   2.043       .  S
N2990      C2991   1.340       .  A
N2990     Cu2996   2.049       .  S
C2991      C2992   1.378       .  A
C2991      H2994   1.082       .  S
C2992      C2993   1.377       .  A
C2993      H2995   1.082       .  S
Cu2996     N2999   2.050       .  S
Cu2997     N3007   2.043       .  S
Cu2998     N3000   2.053       .  S
Cu2998     N3006   2.052       .  S
N2999      N3000   1.318       .  A
N2999      C3003   1.339       .  A
N3000      C3001   1.340       .  A
C3001      C3002   1.387       .  A
C3001      H3004   1.080       .  S
C3002      C3003   1.386       .  A
C3002      C3339   1.480       .  S
C3003      H3005   1.080       .  S
N3006      N3007   1.320       .  A
N3006      C3010   1.341       .  A
N3007      C3008   1.339       .  A
C3008      C3009   1.377       .  A
C3008      H3011   1.082       .  S
C3009      C3010   1.379       .  A
C3010      H3012   1.082       .  S
N3013      N3014   1.320       .  A
N3013      C3017   1.339       .  A
N3013     Cu3021   2.042       .  S
N3014      C3015   1.340       .  A
N3014     Cu3020   2.047       .  S
C3015      C3016   1.378       .  A
C3015      H3018   1.082       .  S
C3016      C3017   1.377       .  A
C3017      H3019   1.082       .  S
Cu3020     N3023   2.048       .  S
Cu3021     N3031   2.042       .  S
Cu3022     N3024   2.053       .  S
Cu3022     N3030   2.053       .  S
N3023      N3024   1.318       .  A
N3023      C3027   1.340       .  A
N3024      C3025   1.340       .  A
C3025      C3026   1.387       .  A
C3025      H3028   1.080       .  S
C3026      C3027   1.386       .  A
C3026      C3282   1.479       .  S
C3027      H3029   1.080       .  S
N3030      N3031   1.320       .  A
N3030      C3034   1.341       .  A
N3031      C3032   1.339       .  A
C3032      C3033   1.377       .  A
C3032      H3035   1.082       .  S
C3033      C3034   1.379       .  A
C3034      H3036   1.082       .  S
N3037      N3038   1.320       .  A
N3037      C3041   1.339       .  A
N3037     Cu3045   2.043       .  S
N3038      C3039   1.340       .  A
N3038     Cu3044   2.049       .  S
C3039      C3040   1.378       .  A
C3039      H3042   1.082       .  S
C3040      C3041   1.377       .  A
C3041      H3043   1.082       .  S
Cu3044     N3047   2.050       .  S
Cu3045     N3055   2.043       .  S
Cu3046     N3048   2.049       .  S
Cu3046     N3054   2.048       .  S
N3047      N3048   1.318       .  A
N3047      C3051   1.340       .  A
N3048      C3049   1.339       .  A
C3049      C3050   1.386       .  A
C3049      H3052   1.080       .  S
C3050      C3051   1.387       .  A
C3050      C3170   1.479       .  S
C3051      H3053   1.080       .  S
N3054      N3055   1.320       .  A
N3054      C3058   1.340       .  A
N3055      C3056   1.339       .  A
C3056      C3057   1.377       .  A
C3056      H3059   1.082       .  S
C3057      C3058   1.378       .  A
C3058      H3060   1.082       .  S
N3061      N3062   1.323       .  A
N3061      C3065   1.353       .  A
N3061     Cu3069   2.100       .  S
N3062      C3063   1.338       .  A
N3062     Cu3068   2.057       .  S
C3063      C3064   1.378       .  A
C3063      H3066   1.081       .  S
C3064      C3065   1.389       .  A
C3064      C3664   1.475       .  S
C3065      H3067   1.081       .  S
Cu3068     N3071   2.055       .  S
Cu3069     N3079   2.101       .  S
Cu3070     N3072   2.089       .  S
Cu3070     N3078   2.090       .  S
N3071      N3072   1.319       .  A
N3071      C3075   1.347       .  A
N3072      C3073   1.343       .  A
C3073      C3074   1.393       .  A
C3073      H3076   1.081       .  S
C3074      C3075   1.384       .  A
C3074      C3113   1.487       .  S
C3075      H3077   1.081       .  S
N3078      N3079   1.325       .  A
N3078      C3082   1.347       .  A
N3079      C3080   1.351       .  A
C3080      C3081   1.387       .  A
C3080      H3083   1.082       .  S
C3081      C3082   1.384       .  A
C3081      C3309   1.481       .  S
C3082      H3084   1.082       .  S
N3085      N3086   1.323       .  A
N3085      C3089   1.352       .  A
N3085     Cu3093   2.094       .  S
N3086      C3087   1.339       .  A
N3086     Cu3092   2.064       .  S
C3087      C3088   1.380       .  A
C3087      H3090   1.081       .  S
C3088      C3089   1.388       .  A
C3088      C3688   1.475       .  S
C3089      H3091   1.081       .  S
Cu3092     N3095   2.062       .  S
Cu3093     N3103   2.095       .  S
Cu3094     N3096   2.087       .  S
Cu3094     N3102   2.088       .  S
N3095      N3096   1.320       .  A
N3095      C3099   1.348       .  A
N3096      C3097   1.343       .  A
C3097      C3098   1.392       .  A
C3097      H3100   1.081       .  S
C3098      C3099   1.386       .  A
C3098      C3109   1.488       .  S
C3099      H3101   1.081       .  S
N3102      N3103   1.324       .  A
N3102      C3106   1.347       .  A
N3103      C3104   1.350       .  A
C3104      C3105   1.386       .  A
C3104      H3107   1.082       .  S
C3105      C3106   1.384       .  A
C3105      C3138   1.479       .  S
C3106      H3108   1.082       .  S
C3109      C3110   1.402       .  A
C3109      C3114   1.414       .  A
C3110      C3111   1.399       .  A
C3110      H3115   1.078       .  S
C3111      C3112   1.398       .  A
C3112      C3113   1.400       .  A
C3112      H3116   1.078       .  S
C3113      C3114   1.414       .  A
C3114      H3117   1.082       .  S
N3118      N3119   1.323       .  A
N3118      C3122   1.353       .  A
N3118     Cu3126   2.100       .  S
N3119      C3120   1.339       .  A
N3119     Cu3125   2.063       .  S
C3120      C3121   1.380       .  A
C3120      H3123   1.081       .  S
C3121      C3122   1.389       .  A
C3122      H3124   1.081       .  S
Cu3125     N3128   2.061       .  S
Cu3126     N3136   2.100       .  S
Cu3127     N3129   2.085       .  S
Cu3127     N3135   2.085       .  S
N3128      N3129   1.319       .  A
N3128      C3132   1.348       .  A
N3129      C3130   1.343       .  A
C3130      C3131   1.392       .  A
C3130      H3133   1.081       .  S
C3131      C3132   1.385       .  A
C3131      C3166   1.487       .  S
C3132      H3134   1.081       .  S
N3135      N3136   1.325       .  A
N3135      C3139   1.346       .  A
N3136      C3137   1.351       .  A
C3137      C3138   1.387       .  A
C3137      H3140   1.082       .  S
C3138      C3139   1.383       .  A
C3139      H3141   1.082       .  S
N3142      N3143   1.323       .  A
N3142      C3146   1.353       .  A
N3142     Cu3150   2.101       .  S
N3143      C3144   1.340       .  A
N3143     Cu3149   2.065       .  S
C3144      C3145   1.380       .  A
C3144      H3147   1.081       .  S
C3145      C3146   1.389       .  A
C3146      H3148   1.081       .  S
Cu3149     N3152   2.063       .  S
Cu3150     N3160   2.102       .  S
Cu3151     N3153   2.088       .  S
Cu3151     N3159   2.088       .  S
N3152      N3153   1.320       .  A
N3152      C3156   1.348       .  A
N3153      C3154   1.343       .  A
C3154      C3155   1.392       .  A
C3154      H3157   1.081       .  S
C3155      C3156   1.386       .  A
C3155      C3168   1.488       .  S
C3156      H3158   1.081       .  S
N3159      N3160   1.325       .  A
N3159      C3163   1.347       .  A
N3160      C3161   1.351       .  A
C3161      C3162   1.387       .  A
C3161      H3164   1.082       .  S
C3162      C3163   1.384       .  A
C3162      C3195   1.481       .  S
C3163      H3165   1.082       .  S
C3166      C3167   1.413       .  A
C3166      C3171   1.401       .  A
C3167      C3168   1.413       .  A
C3167      H3172   1.082       .  S
C3168      C3169   1.402       .  A
C3169      C3170   1.399       .  A
C3169      H3173   1.078       .  S
C3170      C3171   1.399       .  A
C3171      H3174   1.078       .  S
N3175      N3176   1.323       .  A
N3175      C3179   1.353       .  A
N3175     Cu3183   2.102       .  S
N3176      C3177   1.339       .  A
N3176     Cu3182   2.063       .  S
C3177      C3178   1.380       .  A
C3177      H3180   1.081       .  S
C3178      C3179   1.390       .  A
C3179      H3181   1.081       .  S
Cu3182     N3185   2.061       .  S
Cu3183     N3193   2.102       .  S
Cu3184     N3186   2.087       .  S
Cu3184     N3192   2.088       .  S
N3185      N3186   1.319       .  A
N3185      C3189   1.348       .  A
N3186      C3187   1.343       .  A
C3187      C3188   1.392       .  A
C3187      H3190   1.081       .  S
C3188      C3189   1.385       .  A
C3188      C3227   1.487       .  S
C3189      H3191   1.081       .  S
N3192      N3193   1.325       .  A
N3192      C3196   1.347       .  A
N3193      C3194   1.351       .  A
C3194      C3195   1.388       .  A
C3194      H3197   1.082       .  S
C3195      C3196   1.384       .  A
C3196      H3198   1.082       .  S
N3199      N3200   1.323       .  A
N3199      C3203   1.353       .  A
N3199     Cu3207   2.099       .  S
N3200      C3201   1.339       .  A
N3200     Cu3206   2.063       .  S
C3201      C3202   1.380       .  A
C3201      H3204   1.081       .  S
C3202      C3203   1.389       .  A
C3203      H3205   1.081       .  S
Cu3206     N3209   2.061       .  S
Cu3207     N3217   2.099       .  S
Cu3208     N3210   2.087       .  S
Cu3208     N3216   2.087       .  S
N3209      N3210   1.319       .  A
N3209      C3213   1.348       .  A
N3210      C3211   1.343       .  A
C3211      C3212   1.392       .  A
C3211      H3214   1.081       .  S
C3212      C3213   1.385       .  A
C3212      C3223   1.487       .  S
C3213      H3215   1.081       .  S
N3216      N3217   1.325       .  A
N3216      C3220   1.346       .  A
N3217      C3218   1.351       .  A
C3218      C3219   1.387       .  A
C3218      H3221   1.082       .  S
C3219      C3220   1.383       .  A
C3219      C3235   1.479       .  S
C3220      H3222   1.082       .  S
C3223      C3224   1.401       .  A
C3223      C3228   1.414       .  A
C3224      C3225   1.399       .  A
C3224      H3229   1.078       .  S
C3225      C3226   1.399       .  A
C3226      C3227   1.401       .  A
C3226      H3230   1.078       .  S
C3227      C3228   1.413       .  A
C3228      H3231   1.082       .  S
N3232      N3233   1.325       .  A
N3232      C3236   1.351       .  A
N3232     Cu3240   2.098       .  S
N3233      C3234   1.346       .  A
N3233     Cu3239   2.088       .  S
C3234      C3235   1.383       .  A
C3234      H3237   1.082       .  S
C3235      C3236   1.387       .  A
C3236      H3238   1.082       .  S
Cu3239     N3242   2.088       .  S
Cu3240     N3250   2.097       .  S
Cu3241     N3243   2.063       .  S
Cu3241     N3249   2.064       .  S
N3242      N3243   1.319       .  A
N3242      C3246   1.343       .  A
N3243      C3244   1.348       .  A
C3244      C3245   1.386       .  A
C3244      H3247   1.081       .  S
C3245      C3246   1.392       .  A
C3245      C3280   1.488       .  S
C3246      H3248   1.081       .  S
N3249      N3250   1.323       .  A
N3249      C3253   1.339       .  A
N3250      C3251   1.352       .  A
C3251      C3252   1.388       .  A
C3251      H3254   1.081       .  S
C3252      C3253   1.380       .  A
C3252      C3795   1.475   1_545  S
C3253      H3255   1.081       .  S
N3256      N3257   1.323       .  A
N3256      C3260   1.354       .  A
N3256     Cu3264   2.106       .  S
N3257      C3258   1.339       .  A
N3257     Cu3263   2.060       .  S
C3258      C3259   1.379       .  A
C3258      H3261   1.081       .  S
C3259      C3260   1.390       .  A
C3259      C3819   1.477   1_545  S
C3260      H3262   1.081       .  S
Cu3263     N3266   2.058       .  S
Cu3264     N3274   2.106       .  S
Cu3265     N3267   2.090       .  S
Cu3265     N3273   2.091       .  S
N3266      N3267   1.319       .  A
N3266      C3270   1.348       .  A
N3267      C3268   1.343       .  A
C3268      C3269   1.393       .  A
C3268      H3271   1.081       .  S
C3269      C3270   1.385       .  A
C3269      C3284   1.488       .  S
C3270      H3272   1.081       .  S
N3273      N3274   1.325       .  A
N3273      C3277   1.347       .  A
N3274      C3275   1.352       .  A
C3275      C3276   1.389       .  A
C3275      H3278   1.082       .  S
C3276      C3277   1.384       .  A
C3276      C3366   1.483       .  S
C3277      H3279   1.082       .  S
C3280      C3281   1.402       .  A
C3280      C3285   1.414       .  A
C3281      C3282   1.399       .  A
C3281      H3286   1.078       .  S
C3282      C3283   1.398       .  A
C3283      C3284   1.401       .  A
C3283      H3287   1.078       .  S
C3284      C3285   1.414       .  A
C3285      H3288   1.082       .  S
N3289      N3290   1.323       .  A
N3289      C3293   1.353       .  A
N3289     Cu3297   2.101       .  S
N3290      C3291   1.339       .  A
N3290     Cu3296   2.063       .  S
C3291      C3292   1.380       .  A
C3291      H3294   1.081       .  S
C3292      C3293   1.390       .  A
C3293      H3295   1.081       .  S
Cu3296     N3299   2.061       .  S
Cu3297     N3307   2.102       .  S
Cu3298     N3300   2.089       .  S
Cu3298     N3306   2.089       .  S
N3299      N3300   1.319       .  A
N3299      C3303   1.348       .  A
N3300      C3301   1.343       .  A
C3301      C3302   1.393       .  A
C3301      H3304   1.081       .  S
C3302      C3303   1.385       .  A
C3302      C3341   1.488       .  S
C3303      H3305   1.081       .  S
N3306      N3307   1.325       .  A
N3306      C3310   1.347       .  A
N3307      C3308   1.351       .  A
C3308      C3309   1.388       .  A
C3308      H3311   1.082       .  S
C3309      C3310   1.384       .  A
C3310      H3312   1.082       .  S
N3313      N3314   1.324       .  A
N3313      C3317   1.353       .  A
N3313     Cu3321   2.103       .  S
N3314      C3315   1.339       .  A
N3314     Cu3320   2.065       .  S
C3315      C3316   1.380       .  A
C3315      H3318   1.081       .  S
C3316      C3317   1.390       .  A
C3317      H3319   1.081       .  S
Cu3320     N3323   2.063       .  S
Cu3321     N3331   2.104       .  S
Cu3322     N3324   2.088       .  S
Cu3322     N3330   2.089       .  S
N3323      N3324   1.319       .  A
N3323      C3327   1.349       .  A
N3324      C3325   1.343       .  A
C3325      C3326   1.392       .  A
C3325      H3328   1.081       .  S
C3326      C3327   1.386       .  A
C3326      C3337   1.488       .  S
C3327      H3329   1.081       .  S
N3330      N3331   1.325       .  A
N3330      C3334   1.347       .  A
N3331      C3332   1.351       .  A
C3332      C3333   1.388       .  A
C3332      H3335   1.082       .  S
C3333      C3334   1.384       .  A
C3333      C3390   1.482       .  S
C3334      H3336   1.082       .  S
C3337      C3338   1.402       .  A
C3337      C3342   1.414       .  A
C3338      C3339   1.399       .  A
C3338      H3343   1.078       .  S
C3339      C3340   1.399       .  A
C3340      C3341   1.402       .  A
C3340      H3344   1.078       .  S
C3341      C3342   1.414       .  A
C3342      H3345   1.082       .  S
N3346      N3347   1.323       .  A
N3346      C3350   1.354       .  A
N3346     Cu3354   2.106       .  S
N3347      C3348   1.340       .  A
N3347     Cu3353   2.064       .  S
C3348      C3349   1.380       .  A
C3348      H3351   1.081       .  S
C3349      C3350   1.391       .  A
C3350      H3352   1.081       .  S
Cu3353     N3356   2.062       .  S
Cu3354     N3364   2.106       .  S
Cu3355     N3357   2.093       .  S
Cu3355     N3363   2.094       .  S
N3356      N3357   1.320       .  A
N3356      C3360   1.349       .  A
N3357      C3358   1.344       .  A
C3358      C3359   1.394       .  A
C3358      H3361   1.081       .  S
C3359      C3360   1.385       .  A
C3359      C3398   1.490       .  S
C3360      H3362   1.081       .  S
N3363      N3364   1.325       .  A
N3363      C3367   1.348       .  A
N3364      C3365   1.352       .  A
C3365      C3366   1.388       .  A
C3365      H3368   1.082       .  S
C3366      C3367   1.385       .  A
C3367      H3369   1.082       .  S
N3370      N3371   1.324       .  A
N3370      C3374   1.353       .  A
N3370     Cu3378   2.101       .  S
N3371      C3372   1.340       .  A
N3371     Cu3377   2.066       .  S
C3372      C3373   1.380       .  A
C3372      H3375   1.081       .  S
C3373      C3374   1.389       .  A
C3374      H3376   1.081       .  S
Cu3377     N3380   2.064       .  S
Cu3378     N3388   2.101       .  S
Cu3379     N3381   2.092       .  S
Cu3379     N3387   2.092       .  S
N3380      N3381   1.320       .  A
N3380      C3384   1.349       .  A
N3381      C3382   1.344       .  A
C3382      C3383   1.393       .  A
C3382      H3385   1.081       .  S
C3383      C3384   1.386       .  A
C3383      C3394   1.490       .  S
C3384      H3386   1.081       .  S
N3387      N3388   1.325       .  A
N3387      C3391   1.347       .  A
N3388      C3389   1.351       .  A
C3389      C3390   1.387       .  A
C3389      H3392   1.082       .  S
C3390      C3391   1.385       .  A
C3391      H3393   1.082       .  S
C3394      C3395   1.402       .  A
C3394      C3399   1.415       .  A
C3395      C3396   1.399       .  A
C3395      H3400   1.078       .  S
C3396      C3397   1.399       .  A
C3397      C3398   1.401       .  A
C3397      H3401   1.078       .  S
C3398      C3399   1.415       .  A
C3399      H3402   1.082       .  S
N3403      N3404   1.320       .  A
N3403      C3407   1.339       .  A
N3403     Cu3411   2.040       .  S
N3404      C3405   1.339       .  A
N3404     Cu3410   2.043       .  S
C3405      C3406   1.377       .  A
C3405      H3408   1.081       .  S
C3406      C3407   1.377       .  A
C3406      C3526   1.451       .  S
C3407      H3409   1.082       .  S
Cu3410     N3413   2.043       .  S
Cu3411     N3421   2.040       .  S
Cu3412     N3414   2.050       .  S
Cu3412     N3420   2.049       .  S
N3413      N3414   1.318       .  A
N3413      C3417   1.339       .  A
N3414      C3415   1.339       .  A
C3415      C3416   1.387       .  A
C3415      H3418   1.080       .  S
C3416      C3417   1.385       .  A
C3416      C3768   1.477       .  S
C3417      H3419   1.080       .  S
N3420      N3421   1.320       .  A
N3420      C3424   1.340       .  A
N3421      C3422   1.338       .  A
C3422      C3423   1.376       .  A
C3422      H3425   1.082       .  S
C3423      C3424   1.378       .  A
C3423      C3430   1.452       .  S
C3424      H3426   1.082       .  S
N3427      N3428   1.320       .  A
N3427      C3431   1.339       .  A
N3427     Cu3435   2.043       .  S
N3428      C3429   1.340       .  A
N3428     Cu3434   2.045       .  S
C3429      C3430   1.377       .  A
C3429      H3432   1.082       .  S
C3430      C3431   1.377       .  A
C3431      H3433   1.082       .  S
Cu3434     N3437   2.046       .  S
Cu3435     N3445   2.043       .  S
Cu3436     N3438   2.046       .  S
Cu3436     N3444   2.045       .  S
N3437      N3438   1.318       .  A
N3437      C3441   1.339       .  A
N3438      C3439   1.339       .  A
C3439      C3440   1.386       .  A
C3439      H3442   1.080       .  S
C3440      C3441   1.386       .  A
C3440      C3654   1.478       .  S
C3441      H3443   1.080       .  S
N3444      N3445   1.320       .  A
N3444      C3448   1.340       .  A
N3445      C3446   1.339       .  A
C3446      C3447   1.377       .  A
C3446      H3449   1.082       .  S
C3447      C3448   1.377       .  A
C3447      C3495   1.452       .  S
C3448      H3450   1.082       .  S
N3451      N3452   1.320       .  A
N3451      C3455   1.338       .  A
N3451     Cu3459   2.038       .  S
N3452      C3453   1.340       .  A
N3452     Cu3458   2.047       .  S
C3453      C3454   1.378       .  A
C3453      H3456   1.082       .  S
C3454      C3455   1.376       .  A
C3454      C3478   1.451       .  S
C3455      H3457   1.082       .  S
Cu3458     N3461   2.048       .  S
Cu3459     N3469   2.038       .  S
Cu3460     N3462   2.048       .  S
Cu3460     N3468   2.047       .  S
N3461      N3462   1.318       .  A
N3461      C3465   1.339       .  A
N3462      C3463   1.339       .  A
C3463      C3464   1.386       .  A
C3463      H3466   1.080       .  S
C3464      C3465   1.386       .  A
C3464      C3597   1.478       .  S
C3465      H3467   1.080       .  S
N3468      N3469   1.320       .  A
N3468      C3472   1.340       .  A
N3469      C3470   1.338       .  A
C3470      C3471   1.377       .  A
C3470      H3473   1.082       .  S
C3471      C3472   1.378       .  A
C3471      C3502   1.452       .  S
C3472      H3474   1.082       .  S
N3475      N3476   1.320       .  A
N3475      C3479   1.339       .  A
N3475     Cu3483   2.040       .  S
N3476      C3477   1.339       .  A
N3476     Cu3482   2.042       .  S
C3477      C3478   1.377       .  A
C3477      H3480   1.081       .  S
C3478      C3479   1.377       .  A
C3479      H3481   1.082       .  S
Cu3482     N3485   2.043       .  S
Cu3483     N3493   2.040       .  S
Cu3484     N3486   2.049       .  S
Cu3484     N3492   2.049       .  S
N3485      N3486   1.318       .  A
N3485      C3489   1.339       .  A
N3486      C3487   1.339       .  A
C3487      C3488   1.387       .  A
C3487      H3490   1.080       .  S
C3488      C3489   1.385       .  A
C3488      C3711   1.477       .  S
C3489      H3491   1.080       .  S
N3492      N3493   1.320       .  A
N3492      C3496   1.340       .  A
N3493      C3494   1.338       .  A
C3494      C3495   1.377       .  A
C3494      H3497   1.082       .  S
C3495      C3496   1.378       .  A
C3496      H3498   1.082       .  S
N3499      N3500   1.320       .  A
N3499      C3503   1.339       .  A
N3499     Cu3507   2.041       .  S
N3500      C3501   1.339       .  A
N3500     Cu3506   2.047       .  S
C3501      C3502   1.377       .  A
C3501      H3504   1.082       .  S
C3502      C3503   1.377       .  A
C3503      H3505   1.082       .  S
Cu3506     N3509   2.048       .  S
Cu3507     N3517   2.041       .  S
Cu3508     N3510   2.048       .  S
Cu3508     N3516   2.047       .  S
N3509      N3510   1.318       .  A
N3509      C3513   1.339       .  A
N3510      C3511   1.339       .  A
C3511      C3512   1.386       .  A
C3511      H3514   1.080       .  S
C3512      C3513   1.386       .  A
C3512      C3882   1.479       .  S
C3513      H3515   1.080       .  S
N3516      N3517   1.320       .  A
N3516      C3520   1.339       .  A
N3517      C3518   1.339       .  A
C3518      C3519   1.377       .  A
C3518      H3521   1.082       .  S
C3519      C3520   1.377       .  A
C3519      C3543   1.452       .  S
C3520      H3522   1.081       .  S
N3523      N3524   1.320       .  A
N3523      C3527   1.338       .  A
N3523     Cu3531   2.038       .  S
N3524      C3525   1.340       .  A
N3524     Cu3530   2.047       .  S
C3525      C3526   1.378       .  A
C3525      H3528   1.082       .  S
C3526      C3527   1.376       .  A
C3527      H3529   1.082       .  S
Cu3530     N3533   2.048       .  S
Cu3531     N3541   2.038       .  S
Cu3532     N3534   2.048       .  S
Cu3532     N3540   2.047       .  S
N3533      N3534   1.318       .  A
N3533      C3537   1.339       .  A
N3534      C3535   1.339       .  A
C3535      C3536   1.386       .  A
C3535      H3538   1.080       .  S
C3536      C3537   1.386       .  A
C3536      C3825   1.478       .  S
C3537      H3539   1.080       .  S
N3540      N3541   1.320       .  A
N3540      C3544   1.340       .  A
N3541      C3542   1.338       .  A
C3542      C3543   1.377       .  A
C3542      H3545   1.082       .  S
C3543      C3544   1.378       .  A
C3544      H3546   1.082       .  S
N3547      N3548   1.324       .  A
N3547      C3551   1.351       .  A
N3547     Cu3555   2.100       .  S
N3548      C3549   1.346       .  A
N3548     Cu3554   2.086       .  S
C3549      C3550   1.383       .  A
C3549      H3552   1.082       .  S
C3550      C3551   1.387       .  A
C3550      C3835   1.480       .  S
C3551      H3553   1.082       .  S
Cu3554     N3557   2.085       .  S
Cu3555     N3565   2.099       .  S
Cu3556     N3558   2.063       .  S
Cu3556     N3564   2.066       .  S
N3557      N3558   1.319       .  A
N3557      C3561   1.343       .  A
N3558      C3559   1.348       .  A
C3559      C3560   1.386       .  A
C3559      H3562   1.081       .  S
C3560      C3561   1.392       .  A
C3560      C3595   1.487       .  S
C3561      H3563   1.081       .  S
N3564      N3565   1.324       .  A
N3564      C3568   1.340       .  A
N3565      C3566   1.353       .  A
C3566      C3567   1.389       .  A
C3566      H3569   1.081       .  S
C3567      C3568   1.380       .  A
C3568      H3570   1.081       .  S
N3571      N3572   1.325       .  A
N3571      C3575   1.351       .  A
N3571     Cu3579   2.099       .  S
N3572      C3573   1.346       .  A
N3572     Cu3578   2.084       .  S
C3573      C3574   1.382       .  A
C3573      H3576   1.082       .  S
C3574      C3575   1.387       .  A
C3574      C3681   1.478       .  S
C3575      H3577   1.082       .  S
Cu3578     N3581   2.083       .  S
Cu3579     N3589   2.099       .  S
Cu3580     N3582   2.058       .  S
Cu3580     N3588   2.060       .  S
N3581      N3582   1.319       .  A
N3581      C3585   1.342       .  A
N3582      C3583   1.347       .  A
C3583      C3584   1.385       .  A
C3583      H3586   1.081       .  S
C3584      C3585   1.392       .  A
C3584      C3599   1.486       .  S
C3585      H3587   1.081       .  S
N3588      N3589   1.323       .  A
N3588      C3592   1.339       .  A
N3589      C3590   1.353       .  A
C3590      C3591   1.389       .  A
C3590      H3593   1.081       .  S
C3591      C3592   1.379       .  A
C3592      H3594   1.081       .  S
C3595      C3596   1.401       .  A
C3595      C3600   1.413       .  A
C3596      C3597   1.399       .  A
C3596      H3601   1.078       .  S
C3597      C3598   1.398       .  A
C3598      C3599   1.401       .  A
C3598      H3602   1.078       .  S
C3599      C3600   1.413       .  A
C3600      H3603   1.082       .  S
N3604      N3605   1.323       .  A
N3604      C3608   1.353       .  A
N3604     Cu3612   2.099       .  S
N3605      C3606   1.339       .  A
N3605     Cu3611   2.060       .  S
C3606      C3607   1.379       .  A
C3606      H3609   1.081       .  S
C3607      C3608   1.389       .  A
C3608      H3610   1.081       .  S
Cu3611     N3614   2.058       .  S
Cu3612     N3622   2.100       .  S
Cu3613     N3615   2.088       .  S
Cu3613     N3621   2.088       .  S
N3614      N3615   1.319       .  A
N3614      C3618   1.348       .  A
N3615      C3616   1.343       .  A
C3616      C3617   1.393       .  A
C3616      H3619   1.081       .  S
C3617      C3618   1.385       .  A
C3617      C3652   1.487       .  S
C3618      H3620   1.081       .  S
N3621      N3622   1.325       .  A
N3621      C3625   1.347       .  A
N3622      C3623   1.351       .  A
C3623      C3624   1.387       .  A
C3623      H3626   1.082       .  S
C3624      C3625   1.384       .  A
C3624      C3738   1.480       .  S
C3625      H3627   1.082       .  S
N3628      N3629   1.323       .  A
N3628      C3632   1.353       .  A
N3628     Cu3636   2.099       .  S
N3629      C3630   1.339       .  A
N3629     Cu3635   2.060       .  S
C3630      C3631   1.379       .  A
C3630      H3633   1.081       .  S
C3631      C3632   1.389       .  A
C3632      H3634   1.081       .  S
Cu3635     N3638   2.058       .  S
Cu3636     N3646   2.100       .  S
Cu3637     N3639   2.088       .  S
Cu3637     N3645   2.088       .  S
N3638      N3639   1.319       .  A
N3638      C3642   1.348       .  A
N3639      C3640   1.343       .  A
C3640      C3641   1.393       .  A
C3640      H3643   1.081       .  S
C3641      C3642   1.385       .  A
C3641      C3656   1.487       .  S
C3642      H3644   1.081       .  S
N3645      N3646   1.325       .  A
N3645      C3649   1.347       .  A
N3646      C3647   1.351       .  A
C3647      C3648   1.387       .  A
C3647      H3650   1.082       .  S
C3648      C3649   1.384       .  A
C3648      C3705   1.480       .  S
C3649      H3651   1.082       .  S
C3652      C3653   1.401       .  A
C3652      C3657   1.414       .  A
C3653      C3654   1.398       .  A
C3653      H3658   1.078       .  S
C3654      C3655   1.398       .  A
C3655      C3656   1.401       .  A
C3655      H3659   1.078       .  S
C3656      C3657   1.414       .  A
C3657      H3660   1.082       .  S
N3661      N3662   1.323       .  A
N3661      C3665   1.352       .  A
N3661     Cu3669   2.094       .  S
N3662      C3663   1.339       .  A
N3662     Cu3668   2.063       .  S
C3663      C3664   1.380       .  A
C3663      H3666   1.081       .  S
C3664      C3665   1.388       .  A
C3665      H3667   1.081       .  S
Cu3668     N3671   2.061       .  S
Cu3669     N3679   2.095       .  S
Cu3670     N3672   2.086       .  S
Cu3670     N3678   2.086       .  S
N3671      N3672   1.319       .  A
N3671      C3675   1.348       .  A
N3672      C3673   1.343       .  A
C3673      C3674   1.392       .  A
C3673      H3676   1.081       .  S
C3674      C3675   1.385       .  A
C3674      C3709   1.487       .  S
C3675      H3677   1.081       .  S
N3678      N3679   1.324       .  A
N3678      C3682   1.346       .  A
N3679      C3680   1.350       .  A
C3680      C3681   1.386       .  A
C3680      H3683   1.082       .  S
C3681      C3682   1.383       .  A
C3682      H3684   1.082       .  S
N3685      N3686   1.323       .  A
N3685      C3689   1.353       .  A
N3685     Cu3693   2.101       .  S
N3686      C3687   1.338       .  A
N3686     Cu3692   2.056       .  S
C3687      C3688   1.378       .  A
C3687      H3690   1.081       .  S
C3688      C3689   1.390       .  A
C3689      H3691   1.081       .  S
Cu3692     N3695   2.054       .  S
Cu3693     N3703   2.101       .  S
Cu3694     N3696   2.086       .  S
Cu3694     N3702   2.087       .  S
N3695      N3696   1.319       .  A
N3695      C3699   1.347       .  A
N3696      C3697   1.342       .  A
C3697      C3698   1.393       .  A
C3697      H3700   1.081       .  S
C3698      C3699   1.384       .  A
C3698      C3713   1.485       .  S
C3699      H3701   1.081       .  S
N3702      N3703   1.325       .  A
N3702      C3706   1.346       .  A
N3703      C3704   1.351       .  A
C3704      C3705   1.387       .  A
C3704      H3707   1.082       .  S
C3705      C3706   1.383       .  A
C3706      H3708   1.082       .  S
C3709      C3710   1.401       .  A
C3709      C3714   1.413       .  A
C3710      C3711   1.399       .  A
C3710      H3715   1.078       .  S
C3711      C3712   1.397       .  A
C3712      C3713   1.400       .  A
C3712      H3716   1.078       .  S
C3713      C3714   1.413       .  A
C3714      H3717   1.082       .  S
N3718      N3719   1.323       .  A
N3718      C3722   1.353       .  A
N3718     Cu3726   2.101       .  S
N3719      C3720   1.338       .  A
N3719     Cu3725   2.056       .  S
C3720      C3721   1.378       .  A
C3720      H3723   1.081       .  S
C3721      C3722   1.390       .  A
C3722      H3724   1.081       .  S
Cu3725     N3728   2.054       .  S
Cu3726     N3736   2.101       .  S
Cu3727     N3729   2.086       .  S
Cu3727     N3735   2.087       .  S
N3728      N3729   1.319       .  A
N3728      C3732   1.347       .  A
N3729      C3730   1.342       .  A
C3730      C3731   1.393       .  A
C3730      H3733   1.081       .  S
C3731      C3732   1.384       .  A
C3731      C3770   1.485       .  S
C3732      H3734   1.081       .  S
N3735      N3736   1.325       .  A
N3735      C3739   1.346       .  A
N3736      C3737   1.351       .  A
C3737      C3738   1.387       .  A
C3737      H3740   1.082       .  S
C3738      C3739   1.383       .  A
C3739      H3741   1.082       .  S
N3742      N3743   1.323       .  A
N3742      C3746   1.352       .  A
N3742     Cu3750   2.094       .  S
N3743      C3744   1.339       .  A
N3743     Cu3749   2.064       .  S
C3744      C3745   1.380       .  A
C3744      H3747   1.081       .  S
C3745      C3746   1.388       .  A
C3746      H3748   1.081       .  S
Cu3749     N3752   2.062       .  S
Cu3750     N3760   2.095       .  S
Cu3751     N3753   2.086       .  S
Cu3751     N3759   2.086       .  S
N3752      N3753   1.319       .  A
N3752      C3756   1.348       .  A
N3753      C3754   1.343       .  A
C3754      C3755   1.392       .  A
C3754      H3757   1.081       .  S
C3755      C3756   1.385       .  A
C3755      C3766   1.487       .  S
C3756      H3758   1.081       .  S
N3759      N3760   1.324       .  A
N3759      C3763   1.346       .  A
N3760      C3761   1.350       .  A
C3761      C3762   1.386       .  A
C3761      H3764   1.082       .  S
C3762      C3763   1.383       .  A
C3762      C3778   1.478       .  S
C3763      H3765   1.082       .  S
C3766      C3767   1.401       .  A
C3766      C3771   1.413       .  A
C3767      C3768   1.399       .  A
C3767      H3772   1.078       .  S
C3768      C3769   1.397       .  A
C3769      C3770   1.400       .  A
C3769      H3773   1.078       .  S
C3770      C3771   1.413       .  A
C3771      H3774   1.082       .  S
N3775      N3776   1.325       .  A
N3775      C3779   1.351       .  A
N3775     Cu3783   2.099       .  S
N3776      C3777   1.346       .  A
N3776     Cu3782   2.084       .  S
C3777      C3778   1.382       .  A
C3777      H3780   1.082       .  S
C3778      C3779   1.387       .  A
C3779      H3781   1.082       .  S
Cu3782     N3785   2.083       .  S
Cu3783     N3793   2.099       .  S
Cu3784     N3786   2.058       .  S
Cu3784     N3792   2.060       .  S
N3785      N3786   1.319       .  A
N3785      C3789   1.342       .  A
N3786      C3787   1.347       .  A
C3787      C3788   1.385       .  A
C3787      H3790   1.081       .  S
C3788      C3789   1.392       .  A
C3788      C3827   1.486       .  S
C3789      H3791   1.081       .  S
N3792      N3793   1.323       .  A
N3792      C3796   1.339       .  A
N3793      C3794   1.353       .  A
C3794      C3795   1.389       .  A
C3794      H3797   1.081       .  S
C3795      C3796   1.379       .  A
C3796      H3798   1.081       .  S
N3799      N3800   1.324       .  A
N3799      C3803   1.351       .  A
N3799     Cu3807   2.100       .  S
N3800      C3801   1.346       .  A
N3800     Cu3806   2.086       .  S
C3801      C3802   1.383       .  A
C3801      H3804   1.082       .  S
C3802      C3803   1.387       .  A
C3802      C3859   1.480       .  S
C3803      H3805   1.082       .  S
Cu3806     N3809   2.085       .  S
Cu3807     N3817   2.100       .  S
Cu3808     N3810   2.063       .  S
Cu3808     N3816   2.066       .  S
N3809      N3810   1.319       .  A
N3809      C3813   1.343       .  A
N3810      C3811   1.348       .  A
C3811      C3812   1.386       .  A
C3811      H3814   1.081       .  S
C3812      C3813   1.392       .  A
C3812      C3823   1.487       .  S
C3813      H3815   1.081       .  S
N3816      N3817   1.324       .  A
N3816      C3820   1.340       .  A
N3817      C3818   1.353       .  A
C3818      C3819   1.389       .  A
C3818      H3821   1.081       .  S
C3819      C3820   1.380       .  A
C3820      H3822   1.081       .  S
C3823      C3824   1.401       .  A
C3823      C3828   1.413       .  A
C3824      C3825   1.399       .  A
C3824      H3829   1.078       .  S
C3825      C3826   1.398       .  A
C3826      C3827   1.401       .  A
C3826      H3830   1.078       .  S
C3827      C3828   1.413       .  A
C3828      H3831   1.082       .  S
N3832      N3833   1.325       .  A
N3832      C3836   1.351       .  A
N3832     Cu3840   2.101       .  S
N3833      C3834   1.346       .  A
N3833     Cu3839   2.087       .  S
C3834      C3835   1.383       .  A
C3834      H3837   1.082       .  S
C3835      C3836   1.387       .  A
C3836      H3838   1.082       .  S
Cu3839     N3842   2.086       .  S
Cu3840     N3850   2.101       .  S
Cu3841     N3843   2.063       .  S
Cu3841     N3849   2.065       .  S
N3842      N3843   1.319       .  A
N3842      C3846   1.343       .  A
N3843      C3844   1.348       .  A
C3844      C3845   1.386       .  A
C3844      H3847   1.081       .  S
C3845      C3846   1.392       .  A
C3845      C3884   1.488       .  S
C3846      H3848   1.081       .  S
N3849      N3850   1.323       .  A
N3849      C3853   1.340       .  A
N3850      C3851   1.353       .  A
C3851      C3852   1.390       .  A
C3851      H3854   1.081       .  S
C3852      C3853   1.380       .  A
C3853      H3855   1.081       .  S
N3856      N3857   1.325       .  A
N3856      C3860   1.351       .  A
N3856     Cu3864   2.101       .  S
N3857      C3858   1.347       .  A
N3857     Cu3863   2.087       .  S
C3858      C3859   1.383       .  A
C3858      H3861   1.082       .  S
C3859      C3860   1.387       .  A
C3860      H3862   1.082       .  S
Cu3863     N3866   2.086       .  S
Cu3864     N3874   2.101       .  S
Cu3865     N3867   2.063       .  S
Cu3865     N3873   2.065       .  S
N3866      N3867   1.319       .  A
N3866      C3870   1.343       .  A
N3867      C3868   1.348       .  A
C3868      C3869   1.386       .  A
C3868      H3871   1.081       .  S
C3869      C3870   1.392       .  A
C3869      C3880   1.488       .  S
C3870      H3872   1.081       .  S
N3873      N3874   1.323       .  A
N3873      C3877   1.340       .  A
N3874      C3875   1.353       .  A
C3875      C3876   1.390       .  A
C3875      H3878   1.081       .  S
C3876      C3877   1.380       .  A
C3877      H3879   1.081       .  S
C3880      C3881   1.401       .  A
C3880      C3885   1.413       .  A
C3881      C3882   1.399       .  A
C3881      H3886   1.078       .  S
C3882      C3883   1.399       .  A
C3883      C3884   1.401       .  A
C3883      H3887   1.078       .  S
C3884      C3885   1.413       .  A
C3885      H3888   1.082       .  S
