geometry optimzed in LAMMPS
_audit_creation_date              2020-11-30 
_audit_creation_method            'lammps2cif' 
_symmetry_space_group_name_H-M    'P1' 
_symmetry_Int_Tables_number       1 
_symmetry_cell_setting            triclinic 
loop_ 
_symmetry_equiv_pos_as_xyz 
  x,y,z 
_cell_length_a                    47.48403338 
_cell_length_b                    47.46632931267018 
_cell_length_c                    47.41634544605048 
_cell_angle_alpha                 89.99427252851497 
_cell_angle_beta                  89.99168964700557 
_cell_angle_gamma                 90.03189094249439 
loop_ 
_atom_site_label 
_atom_site_type_symbol 
_atom_site_fract_x 
_atom_site_fract_y 
_atom_site_fract_z 
_atom_site_charge 
Zn1        Zn  0.51275564  0.51451588  0.96172103     1.49700
Zn2        Zn  0.51517614  0.53281824  0.02209648     1.49400
Zn3        Zn  0.45867224  0.52002178  0.00354079     1.49100
Zn4        Zn  0.50541710  0.47182693  0.01335414     1.49500
O5          O  0.49683467  0.50785445  0.99805336    -1.79600
O6          O  0.54911289  0.54065105  0.96608104    -0.70200
O7          O  0.49738733  0.56966309  0.01945245    -0.70000
O8          O  0.44272566  0.52805785  0.96492694    -0.69600
O9          O  0.55372488  0.53826114  0.01265768    -0.70200
O10         O  0.48037423  0.52630714  0.93639057    -0.69800
O11         O  0.45891626  0.55051770  0.03625322    -0.70400
O12         O  0.46866744  0.45214269  0.02121753    -0.69800
O13         O  0.51702939  0.51922590  0.06117971    -0.70600
O14         O  0.43643362  0.48470033  0.01040905    -0.70000
O15         O  0.53395211  0.47820368  0.04662756    -0.70400
O16         O  0.51711332  0.44660215  0.98086713    -0.70300
O17         O  0.51814658  0.47595372  0.94411185    -0.70100
C18         C  0.56271192  0.54599958  0.98900518     0.81700
C19         C  0.47865262  0.56891914  0.03811618     0.82200
C20         C  0.45375340  0.52548021  0.94051122     0.81100
C21         C  0.44368100  0.45919381  0.01432536     0.81500
C22         C  0.53436209  0.49914860  0.06382115     0.82600
C23         C  0.51667228  0.45116647  0.95434163     0.81700
Zn24       Zn  0.52210526  0.01701180  0.52497508     1.49700
Zn25       Zn  0.46242724  0.00813967  0.50924467     1.49400
Zn26       Zn  0.51302029  0.00543315  0.46433997     1.49100
Zn27       Zn  0.50878332  0.95809553  0.51240757     1.49500
O28         O  0.49981159  0.99571976  0.50092395    -1.79600
O29         O  0.50673794  0.05405902  0.53098502    -0.70200
O30         O  0.44302683  0.01775569  0.47197577    -0.70000
O31         O  0.54370249  0.03722240  0.46846749    -0.69600
O32         O  0.46469185  0.03793962  0.54283627    -0.70200
O33         O  0.55977173  0.02342300  0.51013365    -0.69800
O34         O  0.47821644  0.01292846  0.44104417    -0.70400
O35         O  0.51465634  0.93653693  0.47632073    -0.69800
O36         O  0.44077059  0.97250600  0.51564590    -0.70600
O37         O  0.52423040  0.96970739  0.44431528    -0.70000
O38         O  0.47271148  0.93868696  0.52320477    -0.70400
O39         O  0.54193054  0.96030178  0.54197236    -0.70300
O40         O  0.52536363  0.99894492  0.56171086    -0.70100
C41         C  0.48540901  0.05503603  0.54665260     0.81700
C42         C  0.45201851  0.01420360  0.44680696     0.82200
C43         C  0.56126622  0.03948994  0.48898197     0.81100
C44         C  0.51776496  0.94444035  0.45086104     0.81500
C45         C  0.44767774  0.94667274  0.51756168     0.82600
C46         C  0.54348782  0.97961639  0.56088289     0.81700
Zn47       Zn  0.02436456  0.51840549  0.52260614     1.49700
Zn48       Zn  0.96585445  0.50095714  0.51759798     1.49400
Zn49       Zn  0.00549105  0.51231799  0.46385872     1.49100
Zn50       Zn  0.01774575  0.45982682  0.50470249     1.49500
O51         O  0.00146965  0.49598292  0.50032280    -1.79600
O52         O  0.01273060  0.51838342  0.56195108    -0.70200
O53         O  0.93967895  0.50772544  0.48509935    -0.70000
O54         O  0.03666517  0.54370152  0.46722681    -0.69600
O55         O  0.97031179  0.53225081  0.54908538    -0.70200
O56         O  0.02262837  0.55709152  0.50947584    -0.69800
O57         O  0.96687344  0.52227569  0.44945448    -0.70400
O58         O  0.02927200  0.44580056  0.46618159    -0.69800
O59         O  0.95071734  0.46252645  0.52775271    -0.70600
O60         O  0.01157240  0.47918189  0.43809013    -0.70000
O61         O  0.98391466  0.43447541  0.50969286    -0.70400
O62         O  0.04837880  0.46400222  0.53695760    -0.70300
O63         O  0.06312110  0.50516975  0.52123528    -0.70100
C64         C  0.99201260  0.53461045  0.56513583     0.81700
C65         C  0.94346453  0.51317979  0.45908643     0.82200
C66         C  0.03903306  0.55986038  0.48883687     0.81100
C67         C  0.01833802  0.45367942  0.44283961     0.81500
C68         C  0.95841556  0.43930913  0.51648647     0.82600
C69         C  0.06491291  0.48541468  0.53889019     0.81700
Zn70       Zn  0.98256885  0.99330305  0.04445328     1.49700
Zn71       Zn  0.03259530  0.98680459  0.99784369     1.49400
Zn72       Zn  0.97364227  0.97581718  0.98666207     1.49100
Zn73       Zn  0.98698889  0.03621388  0.99257223     1.49500
O74         O  0.99607099  0.00027098  0.00709190    -1.79600
O75         O  0.01663686  0.98341001  0.06766920    -0.70200
O76         O  0.02896606  0.95195710  0.96997726    -0.70000
O77         O  0.96888353  0.94072062  0.00736547    -0.69600
O78         O  0.05093302  0.98078162  0.03526783    -0.70200
O79         O  0.94815391  0.96489712  0.04100981    -0.69800
O80         O  0.98942163  0.96642477  0.95023602    -0.70400
O81         O  0.95803118  0.02962198  0.95974158    -0.69800
O82         O  0.05628774  0.02056762  0.98674372    -0.70600
O83         O  0.93705786  0.99257261  0.97893948    -0.70000
O84         O  0.02446478  0.05522472  0.98497319    -0.70400
O85         O  0.97563134  0.06099567  0.02509039    -0.70300
O86         O  0.97630341  0.03167307  0.06195941    -0.70100
C87         C  0.04257487  0.98381700  0.06062640     0.81700
C88         C  0.00933450  0.94901320  0.95152198     0.82200
C89         C  0.94806072  0.94436003  0.02333411     0.81100
C90         C  0.93892862  0.01040738  0.95927810     0.81500
C91         C  0.04987180  0.04668474  0.98691544     0.82600
C92         C  0.97754436  0.05639100  0.05152358     0.81700
Zn93       Zn  0.47645737  0.76983284  0.26827604     1.49700
Zn94       Zn  0.48929084  0.70970116  0.25982128     1.49400
Zn95       Zn  0.48551909  0.75469196  0.20961042     1.49100
Zn96       Zn  0.53506186  0.76028426  0.25605894     1.49500
O97         O  0.49872479  0.74621258  0.24667894    -1.79600
O98         O  0.43961345  0.75325338  0.27519663    -0.70200
O99         O  0.47871430  0.68602432  0.22572484    -0.70000
O100        O  0.45115181  0.78250654  0.21417100    -0.69600
O101        O  0.45988910  0.71531817  0.29315127    -0.70200
O102        O  0.47178912  0.80546621  0.24878430    -0.69800
O103        O  0.47956587  0.71703953  0.19025969    -0.70400
O104        O  0.55421879  0.76627603  0.21850578    -0.69800
O105        O  0.52711214  0.69121311  0.26719865    -0.70600
O106        O  0.51914527  0.76709813  0.18697202    -0.70000
O107        O  0.55812846  0.72679174  0.26831922    -0.70400
O108        O  0.53040025  0.79519708  0.28383108    -0.70300
O109        O  0.49260777  0.77828737  0.30492345    -0.70100
C110        C  0.44106043  0.73482056  0.29429023     0.81700
C111        C  0.48030893  0.69180168  0.19945419     0.82200
C112        C  0.45111194  0.80242082  0.23251590     0.81100
C113        C  0.54525620  0.76561074  0.19316721     0.81500
C114        C  0.55232669  0.70056476  0.26662593     0.82600
C115        C  0.51118449  0.79710054  0.30286428     0.81700
Zn116      Zn  0.53296569  0.23631834  0.72926451     1.49700
Zn117      Zn  0.51813836  0.24273189  0.78870301     1.49400
Zn118      Zn  0.52181244  0.29491639  0.74466407     1.49100
Zn119      Zn  0.47361646  0.24754820  0.73780554     1.49500
O120        O  0.50952857  0.25740102  0.75216136    -1.79600
O121        O  0.53509317  0.19807256  0.74219257    -0.70200
O122        O  0.52611737  0.27674927  0.81287234    -0.70000
O123        O  0.55284273  0.29148796  0.71214855    -0.69600
O124        O  0.54963698  0.21088669  0.78445936    -0.70200
O125        O  0.57070479  0.25232958  0.72938647    -0.69800
O126        O  0.52964794  0.31299601  0.78281624    -0.70400
O127        O  0.45398469  0.28344172  0.72671510    -0.69800
O128        O  0.48078435  0.23328842  0.80730490    -0.70600
O129        O  0.48595022  0.31662160  0.73663163    -0.70000
O130        O  0.44991619  0.23939736  0.77221708    -0.70400
O131        O  0.47918415  0.21624513  0.70665180    -0.70300
O132        O  0.51953143  0.23305544  0.69051903    -0.70100
C133        C  0.55121953  0.19455025  0.76285602     0.81700
C134        C  0.52610283  0.30312602  0.80765788     0.82200
C135        C  0.57069791  0.27112267  0.71066204     0.81100
C136        C  0.46053867  0.30879616  0.73283728     0.81500
C137        C  0.45576543  0.23760869  0.79840394     0.82600
C138        C  0.49969807  0.21539677  0.68895297     0.81700
Zn139      Zn  0.25054118  0.51460554  0.78445870     1.49700
Zn140      Zn  0.23594118  0.52351615  0.72538963     1.49400
Zn141      Zn  0.29489352  0.50750524  0.73294896     1.49100
Zn142      Zn  0.24356447  0.46369303  0.74002137     1.49500
O143        O  0.25821233  0.50033727  0.74770155    -1.79600
O144        O  0.21822762  0.54562923  0.78010704    -0.70200
O145        O  0.25002881  0.52403586  0.68682588    -0.70000
O146        O  0.31827244  0.51533882  0.76736215    -0.69600
O147        O  0.23373068  0.56212125  0.73944235    -0.70200
O148        O  0.28806456  0.52440365  0.80244934    -0.69800
O149        O  0.29075360  0.53993954  0.70232540    -0.70400
O150        O  0.27764962  0.43960192  0.73124116    -0.69800
O151        O  0.19751562  0.51041140  0.72460867    -0.70600
O152        O  0.31306588  0.46980152  0.72377497    -0.70000
O153        O  0.21043231  0.46813977  0.71001320    -0.70400
O154        O  0.23529280  0.44512403  0.77764907    -0.70300
O155        O  0.24329701  0.47997541  0.80832029    -0.70100
C156        C  0.21616019  0.56308139  0.75938445     0.81700
C157        C  0.26952254  0.54197479  0.68560543     0.82200
C158        C  0.31273443  0.51848166  0.79347602     0.81100
C159        C  0.30389407  0.44506066  0.72916943     0.81500
C160        C  0.19375343  0.48950183  0.70880602     0.82600
C161        C  0.24072158  0.45386269  0.80253090     0.81700
Zn162      Zn  0.35413778  0.35022631  0.89987652     1.49700
Zn163      Zn  0.35445087  0.39917371  0.85019165     1.49400
Zn164      Zn  0.40275210  0.40038600  0.90058696     1.49100
Zn165      Zn  0.40478015  0.35105397  0.85119177     1.49500
O166        O  0.37900714  0.37509368  0.87550965    -1.79600
O167        O  0.31100990  0.35869421  0.89170657    -0.70200
O168        O  0.36621820  0.44177878  0.85407330    -0.70000
O169        O  0.39176553  0.39487525  0.94353042    -0.69600
O170        O  0.31123266  0.39313576  0.85982797    -0.70200
O171        O  0.36168849  0.35883874  0.94325405    -0.69800
O172        O  0.39897788  0.44281037  0.88769070    -0.70400
O173        O  0.44756572  0.35759966  0.86268852    -0.69800
O174        O  0.36066442  0.38848724  0.80761446    -0.70600
O175        O  0.44550424  0.38947136  0.89706413    -0.70000
O176        O  0.39711578  0.35901548  0.80770651    -0.70400
O177        O  0.39573213  0.30796142  0.85774980    -0.70300
O178        O  0.36228671  0.30716244  0.89067181    -0.70100
C179        C  0.29752764  0.37625540  0.87605623     0.81700
C180        C  0.38427316  0.45558160  0.86884015     0.82200
C181        C  0.37627612  0.37714963  0.95699288     0.81100
C182        C  0.45996393  0.37264483  0.88157558     0.81500
C183        C  0.37830502  0.37307266  0.79409610     0.82600
C184        C  0.37875404  0.29399274  0.87358092     0.81700
N185        N  0.26659997  0.37815498  0.87794874     0.01100
C186        C  0.24859351  0.36313834  0.89509413     0.03700
C187        C  0.22195739  0.37450597  0.89529518    -0.19200
C188        C  0.22234826  0.39674641  0.87737992    -0.19400
C189        C  0.24921480  0.39843859  0.86664848     0.03600
H190        H  0.20360999  0.36634869  0.90615439     0.17300
H191        H  0.20435625  0.40942531  0.87139799     0.17400
N192        N  0.39023953  0.48518510  0.86194925     0.01100
C193        C  0.41458762  0.49898517  0.86918143     0.03700
C194        C  0.42309763  0.51705468  0.84810143    -0.19200
C195        C  0.40298329  0.51610043  0.82772037    -0.19400
C196        C  0.38274334  0.49747942  0.83690048     0.03600
H197        H  0.44003032  0.53230427  0.84922442     0.17300
H198        H  0.40137197  0.53038922  0.80998213     0.17400
N199        N  0.49012775  0.36864878  0.88740461     0.01100
C200        C  0.50452068  0.37875656  0.91043990     0.03700
C201        C  0.52740184  0.36212227  0.91674591    -0.19200
C202        C  0.52851641  0.34166226  0.89671301    -0.19400
C203        C  0.50634144  0.34637531  0.87860613     0.03600
H204        H  0.54336302  0.36621018  0.93254353     0.17300
H205        H  0.54556154  0.32680137  0.89384004     0.17400
N206        N  0.37518503  0.36936397  0.76343831     0.01100
C207        C  0.35199689  0.37671376  0.74766434     0.03700
C208        C  0.34898503  0.35937765  0.72458528    -0.19200
C209        C  0.37135257  0.34154453  0.72461701    -0.19400
C210        C  0.38741466  0.34838167  0.74778059     0.03600
H211        H  0.33390108  0.36166981  0.70760847     0.17300
H212        H  0.37692831  0.32715765  0.70783017     0.17400
N213        N  0.37697270  0.26311397  0.87093673     0.01100
C214        C  0.35865533  0.24505794  0.88432639     0.03700
C215        C  0.35948794  0.21841769  0.87295344    -0.19200
C216        C  0.37920098  0.21889409  0.85229867    -0.19400
C217        C  0.38989616  0.24582136  0.85151634     0.03600
H218        H  0.34811518  0.20001522  0.88020229     0.17300
H219        H  0.38622824  0.20094333  0.84007569     0.17400
N220        N  0.37611071  0.37711036  0.98808351     0.01100
C221        C  0.39168758  0.39329112  0.00638297     0.03700
C222        C  0.38802475  0.38525390  0.03401982    -0.19200
C223        C  0.36942884  0.36366111  0.03383335    -0.19400
C224        C  0.36224271  0.35916353  0.00610128     0.03600
H225        H  0.39727714  0.39485361  0.05255016     0.17300
H226        H  0.36092860  0.35308646  0.05221024     0.17400
Zn227      Zn  0.27467444  0.26918617  0.97787391     1.49700
Zn228      Zn  0.26329335  0.25879347  0.03715006     1.49400
Zn229      Zn  0.21590666  0.25771109  0.98870105     1.49100
Zn230      Zn  0.26515812  0.21067023  0.98973685     1.49500
O231        O  0.25246520  0.24687743  0.00060346    -1.79600
O232        O  0.27697016  0.30669323  0.99338082    -0.70200
O233        O  0.22818971  0.27104586  0.05766410    -0.70000
O234        O  0.22089429  0.29009737  0.95786425    -0.69600
O235        O  0.29620653  0.28823206  0.03151659    -0.70200
O236        O  0.25968912  0.27204359  0.93985560    -0.69800
O237        O  0.19465687  0.26539948  0.02500473    -0.70400
O238        O  0.22891734  0.18887848  0.98425060    -0.69800
O239        O  0.26942253  0.22231545  0.05855346    -0.70600
O240        O  0.19545999  0.22171087  0.97900059    -0.70000
O241        O  0.27816777  0.19044770  0.02496265    -0.70400
O242        O  0.29416302  0.21643989  0.95597401    -0.70300
O243        O  0.31271242  0.25454759  0.97490178    -0.70100
C244        C  0.29631239  0.30653249  0.01150640     0.81700
C245        C  0.20255197  0.26688223  0.05068567     0.82200
C246        C  0.24099699  0.29081214  0.93963319     0.81100
C247        C  0.20309052  0.19628824  0.98343959     0.81500
C248        C  0.27228760  0.19685233  0.05047320     0.82600
C249        C  0.31237634  0.23653257  0.95544270     0.81700
Zn250      Zn  0.71082514  0.48779254  0.25721068     1.49700
Zn251      Zn  0.75599491  0.53747891  0.26570953     1.49400
Zn252      Zn  0.76984474  0.47828122  0.27242447     1.49100
Zn253      Zn  0.76314082  0.49406845  0.21380560     1.49500
O254        O  0.74776557  0.50145958  0.25016600    -1.79600
O255        O  0.68682362  0.52210968  0.26615002    -0.70200
O256        O  0.78462516  0.53171871  0.29959892    -0.70000
O257        O  0.75165478  0.47086928  0.30827151    -0.69600
O258        O  0.71872624  0.55576571  0.27453378    -0.70200
O259        O  0.71472591  0.45347206  0.28595021    -0.69800
O260        O  0.80604242  0.49533016  0.28026378    -0.70400
O261        O  0.79763740  0.46595989  0.21939965    -0.69800
O262        O  0.76546450  0.56243507  0.23237513    -0.70600
O263        O  0.77776459  0.44247538  0.25428228    -0.70000
O264        O  0.77028231  0.53226348  0.19643589    -0.70400
O265        O  0.73032240  0.48394428  0.18843762    -0.70300
O266        O  0.69421392  0.48072282  0.21865699    -0.70100
C267        C  0.69362635  0.54798647  0.26889451     0.81700
C268        C  0.80377792  0.51258628  0.30023966     0.82200
C269        C  0.73349890  0.45174870  0.30548284     0.81100
C270        C  0.79824301  0.44596663  0.23773974     0.81500
C271        C  0.76644593  0.55708460  0.20599712     0.82600
C272        C  0.70395025  0.48371289  0.19374504     0.81700
Zn273      Zn  0.22676073  0.72312763  0.51922177     1.49700
Zn274      Zn  0.23711293  0.78165185  0.50528108     1.49400
Zn275      Zn  0.28595100  0.73419364  0.50777098     1.49100
Zn276      Zn  0.23953955  0.73309535  0.45831284     1.49500
O277        O  0.24936514  0.74463413  0.49559449    -1.79600
O278        O  0.22061342  0.74095653  0.55566672    -0.70200
O279        O  0.27193503  0.80373630  0.51512604    -0.70000
O280        O  0.28179051  0.70639218  0.54251506    -0.69600
O281        O  0.20344865  0.77851526  0.53446551    -0.70200
O282        O  0.24280550  0.68611137  0.52714587    -0.69800
O283        O  0.30595125  0.77117157  0.51299722    -0.70400
O284        O  0.27663374  0.72545016  0.43868347    -0.69800
O285        O  0.22994980  0.80191945  0.46875422    -0.70600
O286        O  0.30814642  0.72208571  0.47356863    -0.70000
O287        O  0.23077872  0.76851726  0.43557688    -0.70400
O288        O  0.20970797  0.70008207  0.46351339    -0.70300
O289        O  0.19027442  0.71848234  0.50164876    -0.70100
C290        C  0.20190594  0.75963913  0.55383675     0.81700
C291        C  0.29770418  0.79670731  0.51214509     0.82200
C292        C  0.26217456  0.68789304  0.54527641     0.81100
C293        C  0.30197616  0.72555178  0.44758498     0.81500
C294        C  0.23204231  0.79434664  0.44306459     0.82600
C295        C  0.19133663  0.69919527  0.48349055     0.81700
Zn296      Zn  0.60077489  0.64953083  0.14868515     1.49700
Zn297      Zn  0.65115394  0.60088368  0.14948527     1.49400
Zn298      Zn  0.60243273  0.60096843  0.09872517     1.49100
Zn299      Zn  0.65116964  0.65060867  0.10047800     1.49500
O300        O  0.62641521  0.62542319  0.12438972    -1.79600
O301        O  0.61075889  0.64406713  0.19184676    -0.70200
O302        O  0.64285069  0.55742651  0.14173755    -0.70000
O303        O  0.55898277  0.60812930  0.10608368    -0.69600
O304        O  0.64302393  0.61004204  0.19231105    -0.70200
O305        O  0.55832226  0.63817174  0.14214871    -0.69800
O306        O  0.60944723  0.55855479  0.10877113    -0.70400
O307        O  0.64663704  0.64013954  0.05748318    -0.69800
O308        O  0.69445074  0.61077467  0.14321592    -0.70600
O309        O  0.61357543  0.60691919  0.05555378    -0.70000
O310        O  0.69393896  0.64569601  0.11187291    -0.70400
O311        O  0.63943209  0.69314121  0.10577870    -0.70300
O312        O  0.60526116  0.69246044  0.13792808    -0.70100
C313        C  0.62750663  0.62781041  0.20562515     0.81700
C314        C  0.62545306  0.54446216  0.12542629     0.82200
C315        C  0.54512433  0.62219038  0.12468827     0.81100
C316        C  0.63157620  0.62288016  0.04299967     0.81500
C317        C  0.70770872  0.62936345  0.12855419     0.82600
C318        C  0.62106693  0.70624753  0.12076973     0.81700
N319        N  0.63652190  0.62027839  0.01242868     0.01100
C320        C  0.65390578  0.63662253  0.99607602     0.03700
C321        C  0.65926637  0.62438170  0.97034028    -0.19200
C322        C  0.64441364  0.59996277  0.96963770    -0.19400
C323        C  0.63031960  0.59801254  0.99493557     0.03600
H324        H  0.67107647  0.63340093  0.95300916     0.17300
H325        H  0.64208761  0.58628170  0.95150853     0.17400
N326        N  0.62374235  0.51352314  0.12541518     0.01100
C327        C  0.60357061  0.49697280  0.11276893     0.03700
C328        C  0.60934795  0.46874138  0.11569535    -0.19200
C329        C  0.63359137  0.46684280  0.13070822    -0.19400
C330        C  0.64198699  0.49397756  0.13663122     0.03600
H331        H  0.59686702  0.45124729  0.10798627     0.17300
H332        H  0.64376495  0.44754665  0.13735361     0.17400
N333        N  0.73826754  0.63339391  0.13225344     0.01100
C334        C  0.75527994  0.65284649  0.11909394     0.03700
C335        C  0.78101455  0.65527798  0.13217736    -0.19200
C336        C  0.78112108  0.63645722  0.15368453    -0.19400
C337        C  0.75540992  0.62305381  0.15324087     0.03600
H338        H  0.79869894  0.66806375  0.12545694     0.17300
H339        H  0.79887618  0.63165502  0.16717934     0.17400
N340        N  0.51460547  0.61781662  0.12788677     0.01100
C341        C  0.50064707  0.62251528  0.15276667     0.03700
C342        C  0.48089621  0.60187535  0.15780137    -0.19200
C343        C  0.48083460  0.58472732  0.13479949    -0.19400
C344        C  0.50043126  0.59547117  0.11626896     0.03600
H345        H  0.46531681  0.60168714  0.17449069     0.17300
H346        H  0.46508650  0.56885263  0.13024216     0.17400
N347        N  0.61645406  0.73654611  0.11637971     0.01100
C348        C  0.62853707  0.75292888  0.09588731     0.03700
C349        C  0.61217903  0.77605781  0.08972222    -0.19200
C350        C  0.58972295  0.77517546  0.10748203    -0.19400
C351        C  0.59302930  0.75157742  0.12403576     0.03600
H352        H  0.61766701  0.79345193  0.07600869     0.17300
H353        H  0.57438530  0.79183230  0.11033021     0.17400
N354        N  0.63091765  0.63134084  0.23626186     0.01100
C355        C  0.62235420  0.65416909  0.25184789     0.03700
C356        C  0.63858866  0.65748829  0.27566591    -0.19200
C357        C  0.65704588  0.63563670  0.27618916    -0.19400
C358        C  0.65164483  0.61955044  0.25264560     0.03600
H359        H  0.63519022  0.67241697  0.29260636     0.17300
H360        H  0.67091942  0.63035198  0.29351567     0.17400
Zn361      Zn  0.78646222  0.74531204  0.01222120     1.49700
Zn362      Zn  0.72736125  0.73476130  0.02491092     1.49400
Zn363      Zn  0.73875874  0.79348999  0.01459904     1.49100
Zn364      Zn  0.73732208  0.74726539  0.96509554     1.49500
O365        O  0.74963399  0.75715749  0.00196269    -1.79600
O366        O  0.78217577  0.71508697  0.04496130    -0.70200
O367        O  0.72464261  0.75062708  0.06271056    -0.70000
O368        O  0.77404990  0.81380565  0.02669842    -0.69600
O369        O  0.74271675  0.69706665  0.02824252    -0.70200
O370        O  0.80764868  0.78149398  0.01969443    -0.69800
O371        O  0.70552620  0.78831537  0.04365516    -0.70400
O372        O  0.72684717  0.78321733  0.94472920    -0.69800
O373        O  0.68946629  0.73120279  0.00968974    -0.70600
O374        O  0.73156564  0.81534738  0.97892528    -0.70000
O375        O  0.70723525  0.71483086  0.96987833    -0.70400
O376        O  0.77306556  0.73938155  0.94331813    -0.70300
O377        O  0.80666356  0.73495196  0.97613223    -0.70100
C378        C  0.76207167  0.69694178  0.04636727     0.81700
C379        C  0.70499119  0.76839226  0.06197355     0.82200
C380        C  0.79965321  0.80702436  0.02200752     0.81100
C381        C  0.73039635  0.80858046  0.95293244     0.81500
C382        C  0.68941743  0.71312637  0.99024217     0.82600
C383        C  0.79891141  0.73807433  0.95053189     0.81700
Zn384      Zn  0.14743946  0.64772431  0.60117234     1.49700
Zn385      Zn  0.09877239  0.59818691  0.60226857     1.49400
Zn386      Zn  0.14796991  0.59857564  0.65139357     1.49100
Zn387      Zn  0.09913962  0.64874695  0.65165882     1.49500
O388        O  0.12320558  0.62337229  0.62671493    -1.79600
O389        O  0.14109209  0.63766182  0.55827357    -0.70200
O390        O  0.10657273  0.55505196  0.61113760    -0.70000
O391        O  0.19055225  0.60683619  0.64292896    -0.69600
O392        O  0.10740409  0.60508950  0.55894719    -0.70200
O393        O  0.19007639  0.64101912  0.61071921    -0.69800
O394        O  0.13940583  0.55520348  0.64459334    -0.70400
O395        O  0.10885389  0.64151951  0.69520488    -0.69800
O396        O  0.05597866  0.60668222  0.61064824    -0.70600
O397        O  0.14151206  0.60787758  0.69449152    -0.70000
O398        O  0.05588845  0.63983600  0.64396754    -0.70400
O399        O  0.10597646  0.69191545  0.64114846    -0.70300
O400        O  0.13787976  0.69080400  0.60675991    -0.70100
C401        C  0.12471100  0.62066160  0.54503248     0.81700
C402        C  0.12275823  0.54151019  0.62815067     0.82200
C403        C  0.20378963  0.62446890  0.62720670     0.81100
C404        C  0.12580781  0.62493467  0.70847009     0.81500
C405        C  0.04238348  0.62316233  0.62732798     0.82600
C406        C  0.12131007  0.70490933  0.62288529     0.81700
N407        N  0.01137957  0.62296597  0.62715601     0.01100
C408        C  0.99358462  0.60422530  0.61399288     0.03700
C409        C  0.96573949  0.61119166  0.61784607    -0.19200
C410        C  0.96532587  0.63477595  0.63395346    -0.19400
C411        C  0.99293888  0.64163941  0.63947560     0.03600
H412        H  0.94751531  0.59996947  0.60991137     0.17300
H413        H  0.94669927  0.64584430  0.64110114     0.17400
N414        N  0.11806175  0.73548410  0.61859171     0.01100
C415        C  0.09710691  0.75224704  0.62931031     0.03700
C416        C  0.09270908  0.77564309  0.61270229    -0.19200
C417        C  0.11212962  0.77465180  0.59166859    -0.19400
C418        C  0.12783096  0.75066313  0.59595711     0.03600
H419        H  0.07913324  0.79335099  0.61738872     0.17300
H420        H  0.11650388  0.79141198  0.57677804     0.17400
N421        N  0.12741376  0.61722182  0.51429836     0.01100
C422        C  0.11447134  0.59717186  0.49807119     0.03700
C423        C  0.12874501  0.59256850  0.47324607    -0.19200
C424        C  0.15072508  0.61088135  0.47292895    -0.19400
C425        C  0.14920095  0.62621473  0.49753747     0.03600
H426        H  0.12200983  0.57952256  0.45575355     0.17300
H427        H  0.16430013  0.61500177  0.45503877     0.17400
N428        N  0.12671219  0.62477395  0.73958261     0.01100
C429        C  0.10831007  0.63724450  0.75827779     0.03700
C430        C  0.11428780  0.63015998  0.78576260    -0.19200
C431        C  0.13721017  0.61316220  0.78509278    -0.19400
C432        C  0.14474762  0.61024027  0.75722243     0.03600
H433        H  0.10340530  0.63729046  0.80451485     0.17300
H434        H  0.14789712  0.60436375  0.80325977     0.17400
N435        N  0.12119116  0.51051475  0.62972703     0.01100
C436        C  0.10558084  0.49238116  0.61330683     0.03700
C437        C  0.10582029  0.46536852  0.62381600    -0.19200
C438        C  0.12241893  0.46568658  0.64704556    -0.19400
C439        C  0.13189574  0.49289867  0.65014209     0.03600
H440        H  0.09620482  0.44687781  0.61447314     0.17300
H441        H  0.12839259  0.44754511  0.65951308     0.17400
N442        N  0.23436004  0.62771472  0.63016374     0.01100
C443        C  0.24909281  0.61855477  0.65322648     0.03700
C444        C  0.26922107  0.63794918  0.66105064    -0.19200
C445        C  0.26883271  0.65876191  0.64122651    -0.19400
C446        C  0.24833901  0.65155144  0.62199891     0.03600
H447        H  0.28541905  0.63510008  0.67687731     0.17300
H448        H  0.28452447  0.67514753  0.63889816     0.17400
Zn449      Zn  0.02380759  0.73408715  0.72612549     1.49700
Zn450      Zn  0.01228106  0.79396836  0.73781054     1.49400
Zn451      Zn  0.96482858  0.74580733  0.73641384     1.49100
Zn452      Zn  0.01257669  0.74465157  0.78487334     1.49500
O453        O  0.00127077  0.75681443  0.74827869    -1.79600
O454        O  0.06112551  0.75043910  0.72394363    -0.70200
O455        O  0.97595493  0.81463476  0.72899649    -0.70000
O456        O  0.96990918  0.71205300  0.70766665    -0.69600
O457        O  0.04292945  0.78906824  0.70559876    -0.70200
O458        O  0.00847585  0.72964904  0.68840281    -0.69800
O459        O  0.94438147  0.78027378  0.72251052    -0.70400
O460        O  0.97651950  0.73690887  0.80631282    -0.69800
O461        O  0.02053614  0.81440271  0.77439480    -0.70600
O462        O  0.94329797  0.74076852  0.77305759    -0.70000
O463        O  0.02299801  0.77966905  0.80626427    -0.70400
O464        O  0.04375894  0.71261333  0.78108096    -0.70300
O465        O  0.02771203  0.69611404  0.74071252    -0.70100
C466        C  0.06087354  0.76876700  0.70478668     0.81700
C467        C  0.95059344  0.80609526  0.72668648     0.82200
C468        C  0.98966663  0.71088477  0.68911471     0.81100
C469        C  0.95089780  0.74037968  0.79888424     0.81500
C470        C  0.02024541  0.80562064  0.79983939     0.82600
C471        C  0.04483248  0.69457286  0.76086819     0.81700
Zn472      Zn  0.90028726  0.85039449  0.85104459     1.49700
Zn473      Zn  0.85048752  0.85079468  0.90028560     1.49400
Zn474      Zn  0.89991124  0.89989037  0.90014892     1.49100
Zn475      Zn  0.85126514  0.89981170  0.85031911     1.49500
O476        O  0.87548495  0.87518882  0.87542859    -1.79600
O477        O  0.89162544  0.80779538  0.85963332    -0.70200
O478        O  0.85637459  0.86129829  0.94312565    -0.70000
O479        O  0.94287784  0.88875542  0.89527885    -0.69600
O480        O  0.85861273  0.80740689  0.89298960    -0.70200
O481        O  0.94337356  0.85686685  0.86080343    -0.69800
O482        O  0.88839835  0.89552852  0.94276866    -0.70400
O483        O  0.86047783  0.94292764  0.85657614    -0.69800
O484        O  0.80775378  0.85991975  0.89287221    -0.70600
O485        O  0.89355267  0.94260765  0.88982009    -0.70000
O486        O  0.80870327  0.89386296  0.86049293    -0.70400
O487        O  0.85741076  0.88923296  0.80751573    -0.70300
O488        O  0.89155534  0.85706436  0.80769372    -0.70100
C489        C  0.87528136  0.79404196  0.87627098     0.81700
C490        C  0.87097122  0.87989625  0.95636130     0.82200
C491        C  0.95661904  0.87177826  0.87918816     0.81100
C492        C  0.87749046  0.95631619  0.87284469     0.81500
C493        C  0.79479273  0.87799412  0.87746940     0.82600
C494        C  0.87366132  0.87221910  0.79406846     0.81700
N495        N  0.86550090  0.88536537  0.98638000     0.01100
C496        C  0.84093000  0.87789915  0.99950404     0.03700
C497        C  0.83223585  0.89838133  0.01813034    -0.19200
C498        C  0.85262912  0.91852435  0.01830785    -0.19400
C499        C  0.87321443  0.90974595  0.99984103     0.03600
H500        H  0.81504458  0.89683472  0.03305123     0.17300
H501        H  0.85428039  0.93549156  0.03351548     0.17400
N502        N  0.86978916  0.86807015  0.76355309     0.01100
C503        C  0.84578075  0.87585073  0.74955240     0.03700
C504        C  0.83788353  0.85578346  0.73013024    -0.19200
C505        C  0.85840977  0.83578778  0.73020109    -0.19400
C506        C  0.87825082  0.84424273  0.74963578     0.03600
H507        H  0.82137432  0.85768084  0.71450822     0.17300
H508        H  0.86077113  0.81929223  0.71458547     0.17400
N509        N  0.87603731  0.76305253  0.87630932     0.01100
C510        C  0.89304056  0.74548527  0.86069431     0.03700
C511        C  0.88853929  0.71759141  0.86710909    -0.19200
C512        C  0.86812654  0.71689755  0.88707181    -0.19400
C513        C  0.86068806  0.74440736  0.89237223     0.03600
H514        H  0.89886056  0.69948609  0.85779554     0.17300
H515        H  0.85925682  0.69815422  0.89658594     0.17400
N516        N  0.76452335  0.88276889  0.88137401     0.01100
C517        C  0.75002465  0.90484381  0.86987950     0.03700
C518        C  0.72854295  0.91366455  0.88722333    -0.19200
C519        C  0.72840923  0.89592828  0.90977163    -0.19400
C520        C  0.74971302  0.87671582  0.90542001     0.03600
H521        H  0.71259461  0.92923636  0.88239278     0.17300
H522        H  0.71215970  0.89490548  0.92577310     0.17400
N523        N  0.98703299  0.86755298  0.88357387     0.01100
C524        C  0.00384246  0.84725272  0.87164153     0.03700
C525        C  0.02784865  0.84277773  0.88728587    -0.19200
C526        C  0.02713006  0.86131558  0.90908449    -0.19400
C527        C  0.00268154  0.87661328  0.90616846     0.03600
H528        H  0.04548700  0.82938492  0.88175946     0.17300
H529        H  0.04408792  0.86525720  0.92382243     0.17400
N530        N  0.88012192  0.98710816  0.87076130     0.01100
C531        C  0.86948359  0.00466743  0.85037130     0.03700
C532        C  0.88302437  0.03034368  0.85036189    -0.19200
C533        C  0.90184668  0.02975677  0.87194770    -0.19400
C534        C  0.89930714  0.00375277  0.88447800     0.03600
H535        H  0.87777613  0.04860170  0.83775078     0.17300
H536        H  0.91420604  0.04743820  0.87943362     0.17400
Zn537      Zn  0.59958402  0.14853312  0.59755499     1.49700
Zn538      Zn  0.64960047  0.14505340  0.64712408     1.49400
Zn539      Zn  0.59723224  0.09729440  0.64495881     1.49100
Zn540      Zn  0.64590559  0.09771587  0.59539936     1.49500
O541        O  0.62311503  0.12228516  0.62158466    -1.79600
O542        O  0.60926705  0.19005029  0.60758785    -0.70200
O543        O  0.64093291  0.13531107  0.69041962    -0.70000
O544        O  0.55411536  0.10723998  0.63627287    -0.69600
O545        O  0.64264073  0.18938110  0.64065819    -0.70200
O546        O  0.55630201  0.14292163  0.60574960    -0.69800
O547        O  0.60496017  0.10513189  0.68788268    -0.70400
O548        O  0.63930646  0.05532925  0.60468992    -0.69800
O549        O  0.69264848  0.13453545  0.63741798    -0.70600
O550        O  0.60637097  0.05360962  0.63808639    -0.70000
O551        O  0.68883946  0.10458920  0.60140715    -0.70400
O552        O  0.63657874  0.10589100  0.55268582    -0.70300
O553        O  0.60766249  0.14276277  0.55407865    -0.70100
C554        C  0.62588514  0.20322815  0.62437630     0.81700
C555        C  0.62248695  0.11957075  0.70264546     0.82200
C556        C  0.54172958  0.12606248  0.62110579     0.81100
C557        C  0.62395511  0.04101013  0.62172405     0.81500
C558        C  0.70419141  0.11865138  0.61862055     0.82600
C559        C  0.62214987  0.12485527  0.53989179     0.81700
N560        N  0.62691523  0.01025304  0.62196537     0.01100
C561        C  0.61814023  0.99449397  0.59941825     0.03700
C562        C  0.63756625  0.97447672  0.59169490    -0.19200
C563        C  0.65908818  0.97657797  0.61033694    -0.19400
C564        C  0.65189780  0.99750336  0.62911591     0.03600
H565        H  0.63489000  0.95800934  0.57612768     0.17300
H566        H  0.67620677  0.96162833  0.61245403     0.17400
N567        N  0.62280464  0.12638657  0.50904655     0.01100
C568        C  0.61423454  0.10653308  0.48986245     0.03700
C569        C  0.62030417  0.11456615  0.46262417    -0.19200
C570        C  0.63298229  0.14019144  0.46425934    -0.19400
C571        C  0.63420736  0.14709061  0.49243377     0.03600
H572        H  0.61525677  0.10324917  0.44344404     0.17300
H573        H  0.64058611  0.15262396  0.44667970     0.17400
N574        N  0.62154010  0.11708019  0.73350204     0.01100
C575        C  0.59938174  0.12578613  0.75000640     0.03700
C576        C  0.59510595  0.10831387  0.77273154    -0.19200
C577        C  0.61519419  0.08814489  0.77137906    -0.19400
C578        C  0.63120482  0.09393368  0.74789858     0.03600
H579        H  0.58049585  0.11148827  0.78999377     0.17300
H580        H  0.61944245  0.07245614  0.78740693     0.17400
N581        N  0.51096771  0.12912990  0.62211998     0.01100
C582        C  0.49043844  0.11312672  0.60934262     0.03700
C583        C  0.46386259  0.12303919  0.61533406    -0.19200
C584        C  0.46717287  0.14596620  0.63209160    -0.19400
C585        C  0.49567961  0.14944596  0.63592934     0.03600
H586        H  0.44404219  0.11492153  0.60744420     0.17300
H587        H  0.45047337  0.15907601  0.64043941     0.17400
N588        N  0.73493694  0.11639642  0.61623790     0.01100
C589        C  0.75127594  0.12581093  0.59429887     0.03700
C590        C  0.77748443  0.11355396  0.59407243    -0.19200
C591        C  0.77830617  0.09577873  0.61636670    -0.19400
C592        C  0.75254235  0.09768646  0.62952394     0.03600
H593        H  0.79480791  0.11827842  0.57996446     0.17300
H594        H  0.79626393  0.08340476  0.62300951     0.17400
N595        N  0.62497773  0.23415480  0.62472668     0.01100
C596        C  0.63008273  0.24818947  0.59994223     0.03700
C597        C  0.60775753  0.26499616  0.59226540    -0.19200
C598        C  0.58917437  0.26415972  0.61401827    -0.19400
C599        C  0.60082952  0.24688316  0.63421952    -0.08400
H600        H  0.60740415  0.28021961  0.57524373     0.17300
H601        H  0.57176999  0.27860404  0.61692033     0.17400
Zn602      Zn  0.77398211  0.97377196  0.76754284     1.49700
Zn603      Zn  0.76086681  0.98572660  0.70837455     1.49400
Zn604      Zn  0.71368889  0.98455107  0.75641402     1.49100
Zn605      Zn  0.76061970  0.03351929  0.75715200     1.49500
O606        O  0.75053797  0.99618874  0.74570082    -1.79600
O607        O  0.81057849  0.96944006  0.74951466    -0.70200
O608        O  0.72415377  0.97828013  0.68845814    -0.70000
O609        O  0.71830975  0.95657369  0.79036770    -0.69600
O610        O  0.79069391  0.95256667  0.71106606    -0.70200
O611        O  0.75714955  0.93678843  0.77387942    -0.69800
O612        O  0.69194867  0.97169854  0.72214550    -0.70400
O613        O  0.72491956  0.05449400  0.76737458    -0.69800
O614        O  0.76974577  0.02180414  0.68763748    -0.70600
O615        O  0.69250499  0.02084996  0.76158488    -0.70000
O616        O  0.76685367  0.05488531  0.72117372    -0.70400
O617        O  0.79411947  0.03074041  0.78663452    -0.70300
O618        O  0.78077185  0.98985436  0.80454814    -0.70100
C619        C  0.80947543  0.95096362  0.73052767     0.81700
C620        C  0.69862004  0.97640077  0.69651839     0.82200
C621        C  0.73808218  0.93820621  0.79237948     0.81100
C622        C  0.69961625  0.04670960  0.76267667     0.81500
C623        C  0.76615488  0.04732185  0.69541627     0.82600
C624        C  0.79733323  0.01057590  0.80448583     0.81700
Zn625      Zn  0.77979055  0.24244491  0.51030333     1.49700
Zn626      Zn  0.73547044  0.29491707  0.51255926     1.49400
Zn627      Zn  0.73003325  0.24728171  0.46525472     1.49100
Zn628      Zn  0.71995781  0.23869960  0.52583394     1.49500
O629        O  0.74368630  0.25726674  0.50134801    -1.79600
O630        O  0.80329547  0.27584008  0.52160868    -0.70200
O631        O  0.72976014  0.31599892  0.47599804    -0.70000
O632        O  0.76496903  0.23938124  0.44148742    -0.69600
O633        O  0.77270136  0.31188719  0.52246541    -0.70200
O634        O  0.79955476  0.23574880  0.47320205    -0.69800
O635        O  0.71791917  0.28246207  0.44516038    -0.70400
O636        O  0.68165032  0.23658537  0.51090534    -0.69800
O637        O  0.70258987  0.29359519  0.54303054    -0.70600
O638        O  0.69890302  0.21669153  0.47228701    -0.70000
O639        O  0.72171931  0.25650573  0.56271820    -0.70400
O640        O  0.72981326  0.20019161  0.53155357    -0.70300
O641        O  0.77540487  0.20783433  0.53830291    -0.70100
C642        C  0.79765145  0.30211819  0.52059839     0.81700
C643        C  0.72561992  0.30757199  0.45083545     0.82200
C644        C  0.79110084  0.23881810  0.44787520     0.81100
C645        C  0.68076276  0.21735612  0.49244070     0.81500
C646        C  0.70242252  0.27454341  0.56227312     0.82600
C647        C  0.75292895  0.19318527  0.54227565     0.81700
Zn648      Zn  0.39918735  0.84885198  0.34983839     1.49700
Zn649      Zn  0.34998870  0.89838653  0.34908400     1.49400
Zn650      Zn  0.34930095  0.84884585  0.39868111     1.49100
Zn651      Zn  0.39901379  0.89836849  0.39926159     1.49500
O652        O  0.37432999  0.87369660  0.37423686    -1.79600
O653        O  0.38898502  0.85373183  0.30676944    -0.70200
O654        O  0.30666743  0.89211347  0.35901554    -0.70000
O655        O  0.35857710  0.80558916  0.39229495    -0.69600
O656        O  0.35617967  0.88720434  0.30624000    -0.70200
O657        O  0.39328709  0.80609516  0.36072594    -0.69800
O658        O  0.30622013  0.85724153  0.39048569    -0.70400
O659        O  0.39033248  0.89029027  0.44277205    -0.69800
O660        O  0.36145905  0.94148917  0.35426027    -0.70600
O661        O  0.35691825  0.85734895  0.44170625    -0.70000
O662        O  0.39276742  0.94135189  0.38924963    -0.70400
O663        O  0.44213892  0.89126751  0.39016904    -0.70300
O664        O  0.44202492  0.85973752  0.35542001    -0.70100
C665        C  0.37177509  0.86943168  0.29297584     0.81700
C666        C  0.29285519  0.87512019  0.37509549     0.82200
C667        C  0.37682911  0.79230707  0.37729772     0.81100
C668        C  0.37332934  0.87360595  0.45585489     0.81500
C669        C  0.37848182  0.95490350  0.37062929     0.82600
C670        C  0.45559805  0.87644688  0.37188959     0.81700
N671        N  0.26197415  0.87745184  0.37737514     0.01100
C672        C  0.24425380  0.86359385  0.39574949     0.03700
C673        C  0.21819069  0.87619254  0.39696166    -0.19200
C674        C  0.21859274  0.89790471  0.37834612    -0.19400
C675        C  0.24491779  0.89806768  0.36618567     0.03600
H676        H  0.19998822  0.86895794  0.40871082     0.17300
H677        H  0.20074127  0.91084654  0.37255343     0.17400
N678        N  0.48610750  0.88048947  0.36806160     0.01100
C679        C  0.50255996  0.90130964  0.37958773     0.03700
C680        C  0.52698884  0.90521785  0.36443753    -0.19200
C681        C  0.52687573  0.88578495  0.34341802    -0.19400
C682        C  0.50236344  0.87054899  0.34625538     0.03600
H683        H  0.54443482  0.91888404  0.36987759     0.17300
H684        H  0.54423260  0.88133075  0.32927733     0.17400
N685        N  0.37260034  0.87291574  0.48695015     0.01100
C686        C  0.35603090  0.85667177  0.50438357     0.03700
C687        C  0.36130430  0.86166977  0.53245012    -0.19200
C688        C  0.38168001  0.88149401  0.53349880    -0.19400
C689        C  0.38830130  0.88806655  0.50603887     0.03600
H690        H  0.35132174  0.85169080  0.55040246     0.17300
H691        H  0.39090586  0.89027548  0.55244750     0.17400
N692        N  0.38074399  0.76174314  0.38086914     0.01100
C693        C  0.37207971  0.74578645  0.40345943     0.03700
C694        C  0.38928694  0.72274533  0.40728442    -0.19200
C695        C  0.40839407  0.72300889  0.38596099    -0.19400
C696        C  0.40248489  0.74628295  0.36973728     0.03600
H697        H  0.38606967  0.70557462  0.42198877     0.17300
H698        H  0.42302519  0.70623351  0.38098497     0.17400
N699        N  0.36819799  0.86544487  0.26240605     0.01100
C700        C  0.37760036  0.84323266  0.24647593     0.03700
C701        C  0.36252325  0.84069180  0.22179947    -0.19200
C702        C  0.34394808  0.86244008  0.22121848    -0.19400
C703        C  0.34809022  0.87758018  0.24561736     0.03600
H704        H  0.36697218  0.82657239  0.20441759     0.17300
H705        H  0.33096400  0.86839329  0.20340353     0.17400
N706        N  0.38383402  0.98516666  0.36616774     0.01100
C707        C  0.40699388  0.99978596  0.37558618     0.03700
C708        C  0.41324608  0.02212515  0.35813203    -0.19200
C709        C  0.39298649  0.02276841  0.33789715    -0.19400
C710        C  0.37486065  0.00083024  0.34352714     0.03600
H711        H  0.42906859  0.03818932  0.36160669     0.17300
H712        H  0.38989788  0.03952711  0.32270531     0.17400
Zn713      Zn  0.27727087  0.98060908  0.26915599     1.49700
Zn714      Zn  0.26776680  0.04036971  0.25429962     1.49400
Zn715      Zn  0.26686896  0.99071479  0.20874408     1.49100
Zn716      Zn  0.21900421  0.99268777  0.25713049     1.49500
O717        O  0.25598993  0.00295132  0.24519203    -1.79600
O718        O  0.28148866  0.99942460  0.30523792    -0.70200
O719        O  0.27564232  0.05975285  0.21698607    -0.70000
O720        O  0.29429854  0.95623963  0.21445035    -0.69600
O721        O  0.30050749  0.03646341  0.28456117    -0.70200
O722        O  0.31419269  0.97309621  0.25312340    -0.69800
O723        O  0.27972416  0.02451810  0.18601075    -0.70400
O724        O  0.19733838  0.98078214  0.22249372    -0.69800
O725        O  0.23245645  0.06248765  0.26313662    -0.70600
O726        O  0.22991567  0.98521202  0.18867283    -0.70000
O727        O  0.19885536  0.02941865  0.26233546    -0.70400
O728        O  0.22182136  0.96485429  0.29222282    -0.70300
O729        O  0.26034864  0.94405436  0.27685099    -0.70100
C730        C  0.30094938  0.01734786  0.30381278     0.81700
C731        C  0.27632220  0.05059776  0.19171900     0.82200
C732        C  0.31242738  0.95420067  0.23450310     0.81100
C733        C  0.20432651  0.98463340  0.19677027     0.81500
C734        C  0.20669060  0.05505707  0.26112110     0.82600
C735        C  0.24095173  0.94586426  0.29485152     0.81700
Zn736      Zn  0.10213041  0.14994230  0.14880481     1.49700
Zn737      Zn  0.15067962  0.09997796  0.14877530     1.49400
Zn738      Zn  0.10129157  0.09987607  0.09941648     1.49100
Zn739      Zn  0.15045094  0.14945059  0.09867988     1.49500
O740        O  0.12616718  0.12477402  0.12389048    -1.79600
O741        O  0.10776730  0.13986477  0.19208543    -0.70200
O742        O  0.14198930  0.05689678  0.14156047    -0.70000
O743        O  0.05864509  0.11165524  0.10477950    -0.69600
O744        O  0.14276836  0.10864850  0.19193560    -0.70200
O745        O  0.05958125  0.14579765  0.13705723    -0.69800
O746        O  0.10803138  0.05657787  0.10920674    -0.70400
O747        O  0.14113764  0.14169047  0.05545209    -0.69800
O748        O  0.19363840  0.10591864  0.13837371    -0.70600
O749        O  0.11041181  0.10627821  0.05611219    -0.70000
O750        O  0.19290692  0.13829819  0.10434890    -0.70400
O751        O  0.14535645  0.19295463  0.10911399    -0.70300
O752        O  0.11341939  0.19270995  0.14346249    -0.70100
C753        C  0.12505297  0.12396776  0.20562198     0.81700
C754        C  0.12497602  0.04313397  0.12561661     0.82200
C755        C  0.04576478  0.13043612  0.11950849     0.81100
C756        C  0.12577685  0.12369828  0.04215122     0.81500
C757        C  0.20669627  0.12099874  0.11998592     0.82600
C758        C  0.13039309  0.20638272  0.12737871     0.81700
N759        N  0.12547346  0.12331279  0.01104068     0.01100
C760        C  0.14087676  0.13959906  0.99257076     0.03700
C761        C  0.13390493  0.13432880  0.96492496    -0.19200
C762        C  0.11385635  0.11406227  0.96522290    -0.19400
C763        C  0.10903893  0.10743299  0.99305929     0.03600
H764        H  0.14299135  0.14395906  0.94631212     0.17300
H765        H  0.10398292  0.10470720  0.94689927     0.17400
N766        N  0.12594550  0.01209655  0.12502101     0.01100
C767        C  0.14559258  0.99424429  0.13669526     0.03700
C768        C  0.14215999  0.96689263  0.12771479    -0.19200
C769        C  0.11949459  0.96670859  0.11046351    -0.19400
C770        C  0.10972933  0.99395102  0.10936439     0.03600
H771        H  0.15415896  0.94862159  0.13425613     0.17300
H772        H  0.11021203  0.94830772  0.10064520     0.17400
N773        N  0.01586497  0.13643182  0.11419060     0.01100
C774        C  0.00167970  0.12851346  0.09028639     0.03700
C775        C  0.98245332  0.14870790  0.08228605    -0.19200
C776        C  0.98312963  0.16916440  0.10236858    -0.19400
C777        C  0.00274495  0.16091488  0.12208584     0.03600
H778        H  0.96677094  0.14684383  0.06581217     0.17300
H779        H  0.96810061  0.18619983  0.10440882     0.17400
N780        N  0.12472091  0.12326772  0.23670811     0.01100
C781        C  0.14299522  0.10956032  0.25453308     0.03700
C782        C  0.13638108  0.11367964  0.28245504    -0.19200
C783        C  0.11333418  0.13034501  0.28298012    -0.19400
C784        C  0.10648267  0.13599978  0.25537018     0.03600
H785        H  0.14733674  0.10530563  0.30065237     0.17300
H786        H  0.10267566  0.13792374  0.30171781     0.17400
N787        N  0.13412764  0.23698307  0.13136559     0.01100
C788        C  0.15443328  0.25409562  0.11965116     0.03700
C789        C  0.15651141  0.27940626  0.13364880    -0.19200
C790        C  0.13652616  0.27923883  0.15407250    -0.19400
C791        C  0.12273200  0.25380829  0.15218146     0.03600
H792        H  0.16978627  0.29711384  0.12808860     0.17300
H793        H  0.13118115  0.29678465  0.16767803     0.17400
N794        N  0.23683218  0.11636174  0.11460586     0.01100
C795        C  0.25037132  0.09164991  0.12106825     0.03700
C796        C  0.26822989  0.08362541  0.09962301    -0.19200
C797        C  0.26775876  0.10461558  0.08007967    -0.19400
C798        C  0.24957978  0.12485186  0.09008608     0.03600
H799        H  0.28325455  0.06646803  0.10014439     0.17300
H800        H  0.28221610  0.10674630  0.06253790     0.17400
Zn801      Zn  0.84805449  0.34906408  0.40169877     1.49700
Zn802      Zn  0.84914487  0.39907254  0.35252999     1.49400
Zn803      Zn  0.89820866  0.39817467  0.40210874     1.49100
Zn804      Zn  0.89808595  0.34893646  0.35244989     1.49500
O805        O  0.87331256  0.37372342  0.37725809    -1.79600
O806        O  0.80497522  0.35636364  0.39110437    -0.70200
O807        O  0.85428996  0.44188237  0.36437360    -0.70000
O808        O  0.89090182  0.38869639  0.44484621    -0.69600
O809        O  0.80619007  0.38820107  0.35660443    -0.70200
O810        O  0.85634914  0.35694128  0.44558232    -0.69800
O811        O  0.88828128  0.44150506  0.39670354    -0.70400
O812        O  0.94116457  0.35510290  0.36249683    -0.69800
O813        O  0.86067902  0.39414586  0.30963804    -0.70600
O814        O  0.94140367  0.39001679  0.39387012    -0.70000
O815        O  0.89252587  0.35972263  0.30955178    -0.70400
O816        O  0.88777370  0.30574331  0.35815441    -0.70300
O817        O  0.85548465  0.30599115  0.39221526    -0.70100
C818        C  0.79208372  0.37139258  0.37250118     0.81700
C819        C  0.87031397  0.45522123  0.38172208     0.82200
C820        C  0.87403825  0.37280228  0.45883908     0.81100
C821        C  0.95486307  0.37204832  0.37863362     0.81500
C822        C  0.87764779  0.37792187  0.29608006     0.82600
C823        C  0.87083425  0.29229855  0.37453045     0.81700
N824        N  0.88166581  0.38164756  0.26551882     0.01100
C825        C  0.87160053  0.40316416  0.24894205     0.03700
C826        C  0.88609155  0.40495126  0.22385210    -0.19200
C827        C  0.90502234  0.38351139  0.22368483    -0.19400
C828        C  0.90172642  0.36923257  0.24871503     0.03600
H829        H  0.88136468  0.41865629  0.20622189     0.17300
H830        H  0.91808613  0.37737070  0.20599187     0.17400
N831        N  0.86809283  0.26142334  0.37230786     0.01100
C832        C  0.88204915  0.24295947  0.35469842     0.03700
C833        C  0.87155180  0.21602634  0.35681641    -0.19200
C834        C  0.85073421  0.21675667  0.37631468    -0.19400
C835        C  0.84891813  0.24412969  0.38562734     0.03600
H836        H  0.87904946  0.19744038  0.34590300     0.17300
H837        H  0.83851941  0.19889286  0.38359456     0.17400
N838        N  0.98564814  0.36931422  0.38147504     0.01100
C839        C  0.00221084  0.34732504  0.37238943     0.03700
C840        C  0.02733406  0.34629857  0.38685107    -0.19200
C841        C  0.02758926  0.36867352  0.40465360    -0.19400
C842        C  0.00259452  0.38276726  0.40070333     0.03600
H843        H  0.04498653  0.33248908  0.38264367     0.17300
H844        H  0.04536512  0.37555061  0.41722376     0.17400
N845        N  0.87436373  0.37387129  0.48993861     0.01100
C846        C  0.89099827  0.39020580  0.50723556     0.03700
C847        C  0.88266116  0.38880654  0.53498264    -0.19200
C848        C  0.86068277  0.37073678  0.53601287    -0.19400
C849        C  0.85617176  0.36159361  0.50886096     0.03600
H850        H  0.89252454  0.39895372  0.55290394     0.17300
H851        H  0.84987740  0.36382374  0.55490872     0.17400
N852        N  0.86707553  0.48590358  0.38542521     0.01100
C853        C  0.84876407  0.50389019  0.37195423     0.03700
C854        C  0.84892838  0.53039533  0.38368178    -0.19200
C855        C  0.86805652  0.52989906  0.40481600    -0.19400
C856        C  0.87902611  0.50309743  0.40548302     0.03600
H857        H  0.83746366  0.54873139  0.37642479     0.17300
H858        H  0.87450028  0.54775387  0.41751639     0.17400
N859        N  0.76169292  0.36742067  0.36759166     0.01100
C860        C  0.74684209  0.37653668  0.34446036     0.03700
C861        C  0.72399257  0.35946421  0.33918888    -0.19200
C862        C  0.72327944  0.33988707  0.36010190    -0.19400
C863        C  0.74574789  0.34553876  0.37760699     0.03600
H864        H  0.70740565  0.36314704  0.32390149     0.17300
H865        H  0.70611359  0.32544509  0.36416300     0.17400
Zn866      Zn  0.98579086  0.21013620  0.25733983     1.49700
Zn867      Zn  0.97790612  0.26834704  0.27278544     1.49400
Zn868      Zn  0.03668800  0.25547143  0.26302107     1.49100
Zn869      Zn  0.99137534  0.26118526  0.21298499     1.49500
O870        O  0.00019451  0.24677681  0.24924091    -1.79600
O871        O  0.95110372  0.21547918  0.28558388    -0.70200
O872        O  0.99455162  0.30474655  0.28065910    -0.70000
O873        O  0.05439630  0.21751751  0.26907022    -0.69600
O874        O  0.97220944  0.24968598  0.30872086    -0.70200
O875        O  0.01904984  0.18623353  0.26867119    -0.69800
O876        O  0.03201143  0.28350713  0.29805718    -0.70400
O877        O  0.02936520  0.26742557  0.19375043    -0.69800
O878        O  0.94125716  0.27542991  0.25606371    -0.70600
O879        O  0.06066630  0.26583459  0.22896698    -0.70000
O880        O  0.96243293  0.29487172  0.21938991    -0.70400
O881        O  0.97961746  0.22814623  0.18888871    -0.70300
O882        O  0.98029544  0.19191142  0.21902449    -0.70100
C883        C  0.95130320  0.23369436  0.30571785     0.81700
C884        C  0.01272371  0.30250662  0.29982971     0.82200
C885        C  0.04517994  0.19237578  0.26689552     0.81100
C886        C  0.05465216  0.26514596  0.20268903     0.81500
C887        C  0.94319023  0.29530857  0.23856224     0.82600
C888        C  0.98154366  0.20181701  0.19404476     0.81700
C889        C  0.00117473  0.33259275  0.34569879    -0.08700
C890        C  0.00795766  0.31927618  0.32488632    -0.10300
C891        C  0.90695352  0.24666995  0.33757101    -0.08700
C892        C  0.92687016  0.23999279  0.32290803    -0.10300
C893        C  0.91367742  0.34129700  0.25057812    -0.08700
C894        C  0.92608992  0.31990766  0.24407009    -0.10300
C895        C  0.09643445  0.25113093  0.16757332    -0.08700
C896        C  0.07683521  0.25793351  0.18272919    -0.10300
C897        C  0.06486254  0.17091823  0.25812154    -0.08700
C898        C  0.08308502  0.15463750  0.25072966    -0.10300
C899        C  0.98967279  0.18330338  0.17116660    -0.08700
C900        C  0.99887631  0.17107244  0.15063304    -0.10300
C901        C  0.16562930  0.99892363  0.15896121    -0.08700
C902        C  0.18287683  0.99230452  0.17659683    -0.10300
C903        C  0.18578001  0.07586708  0.25398348    -0.08700
C904        C  0.16674207  0.09186292  0.24843337    -0.10300
C905        C  0.26788384  0.06939498  0.16910418    -0.08700
C906        C  0.25730053  0.08163088  0.14918591    -0.10300
C907        C  0.34646335  0.00335361  0.33282826    -0.08700
C908        C  0.32543661  0.01172683  0.32094760    -0.10300
C909        C  0.33836441  0.90631742  0.24619150    -0.08700
C910        C  0.32794496  0.92864327  0.23962902    -0.10300
C911        C  0.24840375  0.91408856  0.34045407    -0.08700
C912        C  0.24369533  0.92827129  0.31964746    -0.10300
C913        C  0.81180537  0.24495117  0.42623628    -0.08700
C914        C  0.82928766  0.24991574  0.40818648    -0.10300
C915        C  0.81964147  0.32137961  0.51262651    -0.08700
C916        C  0.83657186  0.33890626  0.50519074    -0.10300
C917        C  0.73433469  0.32540251  0.42777484    -0.08700
C918        C  0.74341557  0.33631870  0.40652617    -0.10300
C919        C  0.65767963  0.25736907  0.59050192    -0.08700
C920        C  0.67800748  0.26821362  0.57933036    -0.10300
C921        C  0.75156106  0.16931064  0.56073754    -0.08700
C922        C  0.74706081  0.14987143  0.57654407    -0.10300
C923        C  0.75708694  0.06764044  0.67467452    -0.08700
C924        C  0.74922950  0.08279583  0.65568788    -0.10300
C925        C  0.65894467  0.08158551  0.74693608    -0.08700
C926        C  0.67873501  0.06739215  0.75467203    -0.10300
C927        C  0.66171687  0.19416276  0.49719455    -0.08700
C928        C  0.64798268  0.17290738  0.50034111    -0.10300
C929        C  0.66302998  0.99405028  0.65734052    -0.08700
C930        C  0.67705199  0.98453117  0.67654553    -0.10300
C931        C  0.82171633  0.00813723  0.82248021    -0.08700
C932        C  0.84280928  0.00281561  0.83587461    -0.10300
C933        C  0.74888551  0.91239267  0.84044275    -0.08700
C934        C  0.74246294  0.92222493  0.81779885    -0.10300
C935        C  0.82609839  0.92597183  0.73535374    -0.08700
C936        C  0.83685233  0.90451652  0.74416017    -0.10300
C937        C  0.01212537  0.82475546  0.82210701    -0.08700
C938        C  0.00379420  0.83692147  0.84300738    -0.10300
C939        C  0.92797158  0.82501452  0.73426254    -0.08700
C940        C  0.90713400  0.83614805  0.74406070    -0.10300
C941        C  0.93022013  0.74692254  0.82034628    -0.08700
C942        C  0.91310449  0.75178460  0.83871792    -0.10300
C943        C  0.08583593  0.65718651  0.75350217    -0.08700
C944        C  0.06710687  0.67400333  0.75800930    -0.10300
C945        C  0.07708690  0.76230461  0.67989552    -0.08700
C946        C  0.08763179  0.75388923  0.65818832    -0.10300
C947        C  0.99825327  0.66616495  0.65658851    -0.08700
C948        C  0.99374707  0.68669177  0.67111268    -0.10300
C949        C  0.81908086  0.82912963  0.01424299    -0.08700
C950        C  0.83128345  0.84944958  0.00466554    -0.10300
C951        C  0.82012442  0.74393628  0.92946292    -0.08700
C952        C  0.83835478  0.74931149  0.91237168    -0.10300
C953        C  0.73777618  0.82991888  0.93251694    -0.08700
C954        C  0.74661983  0.84941207  0.91854276    -0.10300
C955        C  0.67998626  0.76176929  0.07791023    -0.08700
C956        C  0.65781669  0.75392973  0.08783614    -0.10300
C957        C  0.75220382  0.66584028  0.09176528    -0.08700
C958        C  0.75782937  0.67893125  0.07053336    -0.10300
C959        C  0.66205235  0.66560436  0.99990354    -0.08700
C960        C  0.67256064  0.68827858  0.99477832    -0.10300
C961        C  0.31784002  0.81801842  0.50412236    -0.08700
C962        C  0.33513768  0.83574147  0.49798952    -0.10300
C963        C  0.23990011  0.81576918  0.42267020    -0.08700
C964        C  0.24706618  0.83621758  0.40894233    -0.10300
C965        C  0.17714469  0.75580406  0.57113203    -0.08700
C966        C  0.15567572  0.74982949  0.58366549    -0.10300
C967        C  0.32413459  0.73448442  0.42852843    -0.08700
C968        C  0.34411512  0.74388948  0.41551758    -0.10300
C969        C  0.16228090  0.65361818  0.49727558    -0.08700
C970        C  0.17461684  0.67455352  0.48943380    -0.10300
C971        C  0.25836453  0.67190779  0.57094874    -0.08700
C972        C  0.25149025  0.66129090  0.59320105    -0.10300
C973        C  0.82338114  0.42972373  0.24352695    -0.08700
C974        C  0.84451187  0.41699957  0.25029592    -0.10300
C975        C  0.83402384  0.50055331  0.34566447    -0.08700
C976        C  0.82062873  0.50695679  0.32489367    -0.10300
C977        C  0.75243713  0.59811325  0.17040978    -0.08700
C978        C  0.75921751  0.57924473  0.18630812    -0.10300
C979        C  0.73819711  0.42642706  0.32172876    -0.08700
C980        C  0.74560164  0.40490840  0.33341047    -0.10300
C981        C  0.66598014  0.49755060  0.15497393    -0.08700
C982        C  0.68430170  0.49093100  0.17155525    -0.10300
C983        C  0.67363622  0.56965235  0.26099891    -0.08700
C984        C  0.66144830  0.59066694  0.25291216    -0.10300
C985        C  0.16343417  0.15930151  0.99758154    -0.08700
C986        C  0.18185099  0.17585694  0.99122857    -0.10300
C987        C  0.18268870  0.25939839  0.07264621    -0.08700
C988        C  0.16849546  0.25204404  0.09267365    -0.10300
C989        C  0.26410353  0.17439259  0.06951691    -0.08700
C990        C  0.25460019  0.15372121  0.08131876    -0.10300
C991        C  0.33935471  0.34022214  0.00072076    -0.08700
C992        C  0.31984769  0.32480113  0.00615695    -0.10300
C993        C  0.34347498  0.24854286  0.91043381    -0.08700
C994        C  0.32986855  0.24233474  0.93117949    -0.10300
C995        C  0.25220720  0.33606841  0.90855202    -0.08700
C996        C  0.24617754  0.31490249  0.92164083    -0.10300
C997        C  0.24756184  0.43351548  0.82426712    -0.08700
C998        C  0.25357066  0.41702660  0.84291491    -0.10300
C999        C  0.33448804  0.51079985  0.81336597    -0.08700
C1000       C  0.35442139  0.50158891  0.82645573    -0.10300
C1001       C  0.19180565  0.58124998  0.75551504    -0.08700
C1002       C  0.17051288  0.59493076  0.75127340    -0.10300
C1003       C  0.17202255  0.49264324  0.68780301    -0.08700
C1004       C  0.15401787  0.49761139  0.67038250    -0.10300
C1005       C  0.32366608  0.42321222  0.73742876    -0.08700
C1006       C  0.33795120  0.40381936  0.74625097    -0.10300
C1007       C  0.25442944  0.58932772  0.66041116    -0.08700
C1008       C  0.26352531  0.56727665  0.66970305    -0.10300
C1009       C  0.43380744  0.24433766  0.81852986    -0.08700
C1010       C  0.41459857  0.25040091  0.83433193    -0.10300
C1011       C  0.51759989  0.32192626  0.83019079    -0.08700
C1012       C  0.50853218  0.33466252  0.85049152    -0.10300
C1013       C  0.57225465  0.17297835  0.75914592    -0.08700
C1014       C  0.58668997  0.15336876  0.75140057    -0.10300
C1015       C  0.50496577  0.17252578  0.65333913    -0.08700
C1016       C  0.50281359  0.19260037  0.66899452    -0.10300
C1017       C  0.59534365  0.25460632  0.66338607    -0.08700
C1018       C  0.58634375  0.26470588  0.68519458    -0.10300
C1019       C  0.43798937  0.32794552  0.74004290    -0.08700
C1020       C  0.41655498  0.33957578  0.74769103    -0.10300
C1021       C  0.42623172  0.81843363  0.23919973    -0.08700
C1022       C  0.40514310  0.83053729  0.24689249    -0.10300
C1023       C  0.50114291  0.84326776  0.33280136    -0.08700
C1024       C  0.50714741  0.82204395  0.31986953    -0.10300
C1025       C  0.56483085  0.75882906  0.17092330    -0.08700
C1026       C  0.57897608  0.75143435  0.15099267    -0.10300
C1027       C  0.42412268  0.73967414  0.31913663    -0.08700
C1028       C  0.41261403  0.74635369  0.34098326    -0.10300
C1029       C  0.48746502  0.66933008  0.18001853    -0.08700
C1030       C  0.49627282  0.64965589  0.16616557    -0.10300
C1031       C  0.59504670  0.66762982  0.25182824    -0.08700
C1032       C  0.57489044  0.68135316  0.25953185    -0.10300
C1033       C  0.08892767  0.08527784  0.99867290    -0.08700
C1034       C  0.07159988  0.06723599  0.99317501    -0.10300
C1035       C  0.99630050  0.09995575  0.08099341    -0.08700
C1036       C  0.98613808  0.07949319  0.06946366    -0.10300
C1037       C  0.06334440  0.99186992  0.08115913    -0.08700
C1038       C  0.08345444  0.99861984  0.09523763    -0.10300
C1039       C  0.90178077  0.91836359  0.00618959    -0.08700
C1040       C  0.92283678  0.92884830  0.01625065    -0.10300
C1041       C  0.91045307  0.00031504  0.91248325    -0.08700
C1042       C  0.92202950  0.00547833  0.93459485    -0.10300
C1043       C  0.00117195  0.90343060  0.92039320    -0.08700
C1044       C  0.00661765  0.92438824  0.93393077    -0.10300
C1045       C  0.99579334  0.55805249  0.58416690    -0.08700
C1046       C  0.99975983  0.57896909  0.59828807    -0.10300
C1047       C  0.09358598  0.49644925  0.58565329    -0.08700
C1048       C  0.08188569  0.49071743  0.56363586    -0.10300
C1049       C  0.00109512  0.41139406  0.41086117    -0.08700
C1050       C  0.00920478  0.43231756  0.42311825    -0.10300
C1051       C  0.06334821  0.57732635  0.49336010    -0.08700
C1052       C  0.08561344  0.58805455  0.49951494    -0.10300
C1053       C  0.90301054  0.49855667  0.42338697    -0.08700
C1054       C  0.92157004  0.50525462  0.43956344    -0.10300
C1055       C  0.93699469  0.41941953  0.50784103    -0.08700
C1056       C  0.91674716  0.40518902  0.50145551    -0.10300
C1057       C  0.58952511  0.99106743  0.58979707    -0.08700
C1058       C  0.56804477  0.98355817  0.57826409    -0.10300
C1059       C  0.58139487  0.06212419  0.49066595    -0.08700
C1060       C  0.59699329  0.08197399  0.49423308    -0.10300
C1061       C  0.49290381  0.09103258  0.58863187    -0.08700
C1062       C  0.48741234  0.07427797  0.57011302    -0.10300
C1063       C  0.43227763  0.00760417  0.42436239    -0.08700
C1064       C  0.41884200  0.00024643  0.40378252    -0.10300
C1065       C  0.40979617  0.90885323  0.50177533    -0.08700
C1066       C  0.42720153  0.92595832  0.50910809    -0.10300
C1067       C  0.50172220  0.91274982  0.40776988    -0.08700
C1068       C  0.50961114  0.92540784  0.42853470    -0.10300
C1069       C  0.60681803  0.57888815  0.99619879    -0.08700
C1070       C  0.58762104  0.56314104  0.99034657    -0.10300
C1071       C  0.48502094  0.58349327  0.06412751    -0.08700
C1072       C  0.49470079  0.59135899  0.08650810    -0.10300
C1073       C  0.55702430  0.50258322  0.08389003    -0.08700
C1074       C  0.57813494  0.50491579  0.09809193    -0.10300
C1075       C  0.42392073  0.43731065  0.00716365    -0.08700
C1076       C  0.40879136  0.41769195  0.00119255    -0.10300
C1077       C  0.43597741  0.51635675  0.91742445    -0.08700
C1078       C  0.42412910  0.50549265  0.89747070    -0.10300
C1079       C  0.51058298  0.42775770  0.93563322    -0.08700
C1080       C  0.50390757  0.40689313  0.92232460    -0.10300
loop_ 
_geom_bond_atom_site_label_1 
_geom_bond_atom_site_label_2 
_geom_bond_distance 
_geom_bond_site_symmetry_2 
_ccdc_geom_bond_type 
Zn1           O5   1.908       .  S
Zn1           O6   2.135       .  S
Zn1          O10   2.030       .  S
Zn1          O17   2.028       .  S
Zn2           O5   1.861   1_554  S
Zn2           O7   1.947       .  S
Zn2           O9   1.902       .  S
Zn2          O13   1.964       .  S
Zn3           O5   1.920   1_554  S
Zn3           O8   2.018   1_554  S
Zn3          O11   2.122       .  S
Zn3          O14   2.007       .  S
Zn4           O5   1.902   1_554  S
Zn4          O12   2.014       .  S
Zn4          O15   2.102       .  S
Zn4          O16   2.029   1_554  S
O6           C18   1.290       .  A
O7           C19   1.255       .  A
O8           C20   1.276       .  A
O9           C18   1.255   1_554  A
O10          C20   1.280       .  A
O11          C19   1.284       .  A
O12          C21   1.276       .  A
O13          C22   1.266       .  A
O14          C21   1.272       .  A
O15          C22   1.286       .  A
O16          C23   1.276       .  A
O17          C23   1.274       .  A
C18        C1070   1.437       .  S
C19        C1071   1.446       .  S
C20        C1077   1.449       .  S
C21        C1075   1.440       .  S
C22        C1073   1.446       .  S
C23        C1079   1.451       .  S
Zn24         O28   1.855   1_545  S
Zn24         O29   1.925       .  S
Zn24         O33   1.946       .  S
Zn24         O40   1.948   1_545  S
Zn25         O28   1.912   1_545  S
Zn25         O30   2.045       .  S
Zn25         O32   2.133       .  S
Zn25         O36   2.002   1_545  S
Zn26         O28   1.901   1_545  S
Zn26         O31   2.106       .  S
Zn26         O34   2.020       .  S
Zn26         O37   2.015   1_545  S
Zn27         O28   1.915       .  S
Zn27         O35   2.013       .  S
Zn27         O38   2.011       .  S
Zn27         O39   2.110       .  S
O29          C41   1.257       .  A
O30          C42   1.279       .  A
O31          C43   1.286       .  A
O32          C41   1.288       .  A
O33          C43   1.262       .  A
O34          C42   1.275       .  A
O35          C44   1.273       .  A
O36          C45   1.273       .  A
O37          C44   1.276       .  A
O38          C45   1.276       .  A
O39          C46   1.285       .  A
O40          C46   1.259       .  A
C41        C1062   1.443       .  S
C42        C1063   1.452       .  S
C43        C1059   1.440       .  S
C44        C1068   1.445       .  S
C45        C1066   1.439       .  S
C46        C1058   1.440       .  S
Zn47         O51   1.852       .  S
Zn47         O52   1.946       .  S
Zn47         O56   1.941       .  S
Zn47         O63   1.946       .  S
Zn48         O51   1.894   1_655  S
Zn48         O53   2.006       .  S
Zn48         O55   2.117       .  S
Zn48         O59   2.018       .  S
Zn49         O51   1.904       .  S
Zn49         O54   2.106       .  S
Zn49         O57   2.013   1_455  S
Zn49         O60   2.013       .  S
Zn50         O51   1.894       .  S
Zn50         O58   2.020       .  S
Zn50         O61   2.020   1_455  S
Zn50         O62   2.120       .  S
O52          C64   1.259   1_455  A
O53          C65   1.273       .  A
O54          C66   1.285       .  A
O55          C64   1.286       .  A
O56          C66   1.258       .  A
O57          C65   1.277       .  A
O58          C67   1.279       .  A
O59          C68   1.278       .  A
O60          C67   1.273       .  A
O61          C68   1.274       .  A
O62          C69   1.287       .  A
O63          C69   1.260       .  A
C64        C1045   1.444       .  S
C65        C1054   1.442       .  S
C66        C1051   1.437       .  S
C67        C1050   1.446       .  S
C68        C1055   1.447       .  S
C69        C1048   1.446       .  S
Zn70         O74   1.913   1_565  S
Zn70         O75   2.013   1_655  S
Zn70         O79   2.124       .  S
Zn70         O86   2.024   1_565  S
Zn71         O74   1.900   1_466  S
Zn71         O76   2.124       .  S
Zn71         O78   1.997   1_556  S
Zn71         O82   2.027   1_565  S
Zn72         O74   1.849   1_566  S
Zn72         O77   1.947   1_556  S
Zn72         O80   1.935       .  S
Zn72         O83   1.946       .  S
Zn73         O74   1.890   1_556  S
Zn73         O81   2.101       .  S
Zn73         O84   2.027   1_655  S
Zn73         O85   2.013   1_556  S
O75          C87   1.276       .  A
O76          C88   1.286       .  A
O77          C89   1.257       .  A
O78          C87   1.274       .  A
O79          C89   1.286       .  A
O80          C88   1.258   1_655  A
O81          C90   1.286       .  A
O82          C91   1.277       .  A
O83          C90   1.262   1_565  A
O84          C91   1.276       .  A
O85          C92   1.276       .  A
O86          C92   1.275       .  A
C87        C1037   1.438       .  S
C88        C1044   1.442       .  S
C89        C1040   1.445       .  S
C90        C1042   1.438       .  S
C91        C1034   1.450       .  S
C92        C1036   1.447       .  S
Zn93         O97   1.851       .  S
Zn93         O98   1.946       .  S
Zn93        O102   1.940       .  S
Zn93        O109   1.941       .  S
Zn94         O97   1.895       .  S
Zn94         O99   2.032       .  S
Zn94        O101   2.125       .  S
Zn94        O105   2.030       .  S
Zn95         O97   1.909       .  S
Zn95        O100   2.111       .  S
Zn95        O103   2.029       .  S
Zn95        O106   2.012       .  S
Zn96         O97   1.903       .  S
Zn96        O104   2.019       .  S
Zn96        O107   2.017       .  S
Zn96        O108   2.128       .  S
O98         C110   1.261       .  A
O99         C111   1.278       .  A
O100        C112   1.285       .  A
O101        C110   1.288       .  A
O102        C112   1.257       .  A
O103        C111   1.275       .  A
O104        C113   1.275       .  A
O105        C114   1.277       .  A
O106        C113   1.276       .  A
O107        C114   1.277       .  A
O108        C115   1.286       .  A
O109        C115   1.259       .  A
C110       C1027   1.445       .  S
C111       C1029   1.450       .  S
C112       C1021   1.440       .  S
C113       C1025   1.442       .  S
C114       C1032   1.447       .  S
C115       C1024   1.445       .  S
Zn116       O120   1.849       .  S
Zn116       O121   1.919       .  S
Zn116       O125   1.946       .  S
Zn116       O132   1.951       .  S
Zn117       O120   1.912       .  S
Zn117       O122   2.016       .  S
Zn117       O124   2.137       .  S
Zn117       O128   2.031       .  S
Zn118       O120   1.907       .  S
Zn118       O123   2.139       .  S
Zn118       O126   2.037       .  S
Zn118       O129   2.027       .  S
Zn119       O120   1.895       .  S
Zn119       O127   2.012       .  S
Zn119       O130   2.019       .  S
Zn119       O131   2.112       .  S
O121        C133   1.255       .  A
O122        C134   1.276       .  A
O123        C135   1.288       .  A
O124        C133   1.287       .  A
O125        C135   1.259       .  A
O126        C134   1.279       .  A
O127        C136   1.276       .  A
O128        C137   1.277       .  A
O129        C136   1.275       .  A
O130        C137   1.275       .  A
O131        C138   1.286       .  A
O132        C138   1.263       .  A
C133       C1013   1.442       .  S
C134       C1011   1.450       .  S
C135       C1018   1.450       .  S
C136       C1019   1.446       .  S
C137       C1009   1.449       .  S
C138       C1016   1.445       .  S
Zn139       O143   1.905       .  S
Zn139       O144   2.137       .  S
Zn139       O148   2.029       .  S
Zn139       O155   2.025       .  S
Zn140       O143   1.857       .  S
Zn140       O145   1.947       .  S
Zn140       O147   1.953       .  S
Zn140       O151   1.928       .  S
Zn141       O143   1.907       .  S
Zn141       O146   2.008       .  S
Zn141       O149   2.125       .  S
Zn141       O152   2.034       .  S
Zn142       O143   1.908       .  S
Zn142       O150   2.025       .  S
Zn142       O153   2.132       .  S
Zn142       O154   2.028       .  S
O144        C156   1.289       .  A
O145        C157   1.259       .  A
O146        C158   1.275       .  A
O147        C156   1.262       .  A
O148        C158   1.278       .  A
O149        C157   1.286       .  A
O150        C159   1.276       .  A
O151        C160   1.256       .  A
O152        C159   1.278       .  A
O153        C160   1.288       .  A
O154        C161   1.277       .  A
O155        C161   1.275       .  A
C156       C1001   1.455       .  S
C157       C1008   1.446       .  S
C158        C999   1.446       .  S
C159       C1005   1.453       .  S
C160       C1003   1.442       .  S
C161        C997   1.449       .  S
Zn162       O166   2.030       .  S
Zn162       O167   2.123       .  S
Zn162       O171   2.128       .  S
Zn162       O178   2.126       .  S
Zn163       O166   2.027       .  S
Zn163       O168   2.106       .  S
Zn163       O170   2.122       .  S
Zn163       O174   2.102       .  S
Zn164       O166   2.031       .  S
Zn164       O169   2.118       .  S
Zn164       O172   2.112       .  S
Zn164       O175   2.102       .  S
Zn165       O166   2.032       .  S
Zn165       O173   2.126       .  S
Zn165       O176   2.128       .  S
Zn165       O177   2.113       .  S
O167        C179   1.287       .  A
O168        C180   1.286       .  A
O169        C181   1.287       .  A
O170        C179   1.287       .  A
O171        C181   1.288       .  A
O172        C180   1.286       .  A
O173        C182   1.288       .  A
O174        C183   1.284       .  A
O175        C182   1.284       .  A
O176        C183   1.289       .  A
O177        C184   1.285       .  A
O178        C184   1.288       .  A
C179        N185   1.474       .  S
C180        N192   1.470       .  S
C181        N220   1.474       .  S
C182        N199   1.471       .  S
C183        N206   1.472       .  S
C184        N213   1.473       .  S
N185        C189   1.377       .  A
N185        C186   1.378       .  A
C186        C995   1.445       .  S
C186        C187   1.375       .  A
C187        C188   1.355       .  A
C187        H190   1.083       .  S
C188        C189   1.376       .  A
C188        H191   1.083       .  S
C189        C998   1.445       .  S
N192        C196   1.370       .  A
N192        C193   1.372       .  A
C193       C1078   1.449       .  S
C193        C194   1.377       .  A
C194        C195   1.360       .  A
C194        H197   1.083       .  S
C195        C196   1.376       .  A
C195        H198   1.083       .  S
C196       C1000   1.447       .  S
N199        C203   1.373       .  A
N199        C200   1.375       .  A
C200       C1080   1.450       .  S
C200        C201   1.376       .  A
C201        C202   1.360       .  A
C201        H204   1.083       .  S
C202        C203   1.377       .  A
C202        H205   1.083       .  S
C203       C1012   1.448       .  S
N206        C210   1.372       .  A
N206        C207   1.376       .  A
C207       C1006   1.451       .  S
C207        C208   1.377       .  A
C208        C209   1.359       .  A
C208        H211   1.083       .  S
C209        C210   1.376       .  A
C209        H212   1.082       .  S
C210       C1020   1.446       .  S
N213        C217   1.378       .  A
N213        C214   1.376       .  A
C214        C993   1.442       .  S
C214        C215   1.375       .  A
C215        C216   1.355       .  A
C215        H218   1.083       .  S
C216        C217   1.376       .  A
C216        H219   1.083       .  S
C217       C1010   1.444       .  S
N220        C224   1.374   1_556  A
N220        C221   1.375   1_556  A
C221       C1076   1.435       .  S
C221        C222   1.376       .  A
C222        C223   1.353       .  A
C222        H225   1.083       .  S
C223        C224   1.375       .  A
C223        H226   1.083       .  S
C224        C991   1.433       .  S
Zn227       O231   1.842   1_556  S
Zn227       O232   1.929       .  S
Zn227       O236   1.943       .  S
Zn227       O243   1.941       .  S
Zn228       O231   1.894       .  S
Zn228       O233   2.016       .  S
Zn228       O235   2.113       .  S
Zn228       O239   2.028       .  S
Zn229       O231   1.897   1_556  S
Zn229       O234   2.135       .  S
Zn229       O237   2.028   1_556  S
Zn229       O240   2.018       .  S
Zn230       O231   1.893   1_556  S
Zn230       O238   2.024       .  S
Zn230       O241   2.023   1_556  S
Zn230       O242   2.129       .  S
O232        C244   1.258   1_556  A
O233        C245   1.277       .  A
O234        C246   1.288       .  A
O235        C244   1.286       .  A
O236        C246   1.258       .  A
O237        C245   1.276       .  A
O238        C247   1.277       .  A
O239        C248   1.275       .  A
O240        C247   1.278       .  A
O241        C248   1.278       .  A
O242        C249   1.287       .  A
O243        C249   1.258       .  A
C244        C992   1.437       .  S
C245        C987   1.449       .  S
C246        C996   1.448       .  S
C247        C986   1.447       .  S
C248        C989   1.450       .  S
C249        C994   1.445       .  S
Zn250       O254   1.899       .  S
Zn250       O255   2.033       .  S
Zn250       O259   2.132       .  S
Zn250       O266   2.019       .  S
Zn251       O254   1.902       .  S
Zn251       O256   2.123       .  S
Zn251       O258   2.015       .  S
Zn251       O262   2.025       .  S
Zn252       O254   1.851       .  S
Zn252       O257   1.939       .  S
Zn252       O260   1.935       .  S
Zn252       O263   1.942       .  S
Zn253       O254   1.905       .  S
Zn253       O261   2.130       .  S
Zn253       O264   2.020       .  S
Zn253       O265   2.026       .  S
O255        C267   1.277       .  A
O256        C268   1.286       .  A
O257        C269   1.258       .  A
O258        C267   1.276       .  A
O259        C269   1.288       .  A
O260        C268   1.257       .  A
O261        C270   1.287       .  A
O262        C271   1.277       .  A
O263        C270   1.260       .  A
O264        C271   1.276       .  A
O265        C272   1.277       .  A
O266        C272   1.276       .  A
C267        C983   1.449       .  S
C268        C976   1.442       .  S
C269        C979   1.445       .  S
C270        C973   1.448       .  S
C271        C978   1.448       .  S
C272        C982   1.448       .  S
Zn273       O277   1.857       .  S
Zn273       O278   1.946       .  S
Zn273       O282   1.952       .  S
Zn273       O289   1.935       .  S
Zn274       O277   1.907       .  S
Zn274       O279   2.012       .  S
Zn274       O281   2.119       .  S
Zn274       O285   2.010       .  S
Zn275       O277   1.897       .  S
Zn275       O280   2.120       .  S
Zn275       O283   2.011       .  S
Zn275       O286   2.018       .  S
Zn276       O277   1.909       .  S
Zn276       O284   2.025       .  S
Zn276       O287   2.040       .  S
Zn276       O288   2.126       .  S
O278        C290   1.259       .  A
O279        C291   1.276       .  A
O280        C292   1.286       .  A
O281        C290   1.285       .  A
O282        C292   1.262       .  A
O283        C291   1.275       .  A
O284        C293   1.275       .  A
O285        C294   1.274       .  A
O286        C293   1.277       .  A
O287        C294   1.278       .  A
O288        C295   1.288       .  A
O289        C295   1.258       .  A
C290        C965   1.445       .  S
C291        C961   1.443       .  S
C292        C971   1.446       .  S
C293        C967   1.450       .  S
C294        C963   1.452       .  S
C295        C970   1.441       .  S
Zn296       O300   2.030       .  S
Zn296       O301   2.117       .  S
Zn296       O305   2.109       .  S
Zn296       O312   2.111       .  S
Zn297       O300   2.038       .  S
Zn297       O302   2.132       .  S
Zn297       O304   2.112       .  S
Zn297       O308   2.129       .  S
Zn298       O300   2.031       .  S
Zn298       O303   2.120       .  S
Zn298       O306   2.096       .  S
Zn298       O309   2.133       .  S
Zn299       O300   2.023       .  S
Zn299       O307   2.109       .  S
Zn299       O310   2.115       .  S
Zn299       O311   2.110       .  S
O301        C313   1.287       .  A
O302        C314   1.288       .  A
O303        C315   1.287       .  A
O304        C313   1.286       .  A
O305        C315   1.286       .  A
O306        C314   1.284       .  A
O307        C316   1.286       .  A
O308        C317   1.287       .  A
O309        C316   1.288       .  A
O310        C317   1.286       .  A
O311        C318   1.286       .  A
O312        C318   1.286       .  A
C313        N354   1.471       .  S
C314        N326   1.471       .  S
C315        N340   1.472       .  S
C316        N319   1.474       .  S
C317        N333   1.474       .  S
C318        N347   1.470       .  S
N319        C323   1.375   1_554  A
N319        C320   1.372   1_554  A
C320        C959   1.440       .  S
C320        C321   1.375       .  A
C321        C322   1.357       .  A
C321        H324   1.083       .  S
C322        C323   1.377       .  A
C322        H325   1.083       .  S
C323       C1069   1.439       .  S
N326        C330   1.377       .  A
N326        C327   1.376       .  A
C327       C1074   1.444       .  S
C327        C328   1.375       .  A
C328        C329   1.357       .  A
C328        H331   1.083       .  S
C329        C330   1.377       .  A
C329        H332   1.083       .  S
C330        C981   1.443       .  S
N333        C337   1.376       .  A
N333        C334   1.376       .  A
C334        C957   1.443       .  S
C334        C335   1.375       .  A
C335        C336   1.356       .  A
C335        H338   1.084       .  S
C336        C337   1.377       .  A
C336        H339   1.083       .  S
C337        C977   1.444       .  S
N340        C344   1.371       .  A
N340        C341   1.371       .  A
C341       C1030   1.451       .  S
C341        C342   1.377       .  A
C342        C343   1.361       .  A
C342        H345   1.083       .  S
C343        C344   1.377       .  A
C343        H346   1.083       .  S
C344       C1072   1.450       .  S
N347        C351   1.371       .  A
N347        C348   1.370       .  A
C348        C956   1.442       .  S
C348        C349   1.377       .  A
C349        C350   1.359       .  A
C349        H352   1.083       .  S
C350        C351   1.377       .  A
C350        H353   1.084       .  S
C351       C1026   1.442       .  S
N354        C358   1.373       .  A
N354        C355   1.373       .  A
C355       C1031   1.446       .  S
C355        C356   1.376       .  A
C356        C357   1.359       .  A
C356        H359   1.083       .  S
C357        C358   1.377       .  A
C357        H360   1.083       .  S
C358        C984   1.448       .  S
Zn361       O365   1.901       .  S
Zn361       O366   2.123       .  S
Zn361       O370   2.021       .  S
Zn361       O377   2.022   1_554  S
Zn362       O365   1.852       .  S
Zn362       O367   1.948       .  S
Zn362       O369   1.939       .  S
Zn362       O373   1.946       .  S
Zn363       O365   1.898       .  S
Zn363       O368   2.016       .  S
Zn363       O371   2.109       .  S
Zn363       O374   2.014   1_554  S
Zn364       O365   1.902   1_556  S
Zn364       O372   2.023       .  S
Zn364       O375   2.112       .  S
Zn364       O376   2.022       .  S
O366        C378   1.287       .  A
O367        C379   1.259       .  A
O368        C380   1.277       .  A
O369        C378   1.258       .  A
O370        C380   1.275       .  A
O371        C379   1.284       .  A
O372        C381   1.276       .  A
O373        C382   1.260   1_554  A
O374        C381   1.275       .  A
O375        C382   1.286       .  A
O376        C383   1.276       .  A
O377        C383   1.277       .  A
C378        C958   1.444       .  S
C379        C955   1.442       .  S
C380        C949   1.444       .  S
C381        C953   1.444       .  S
C382        C960   1.441       .  S
C383        C951   1.445       .  S
Zn384       O388   2.031       .  S
Zn384       O389   2.111       .  S
Zn384       O393   2.099       .  S
Zn384       O400   2.112       .  S
Zn385       O388   2.029       .  S
Zn385       O390   2.123       .  S
Zn385       O392   2.120       .  S
Zn385       O396   2.110       .  S
Zn386       O388   2.034       .  S
Zn386       O391   2.098       .  S
Zn386       O394   2.123       .  S
Zn386       O397   2.113       .  S
Zn387       O388   2.039       .  S
Zn387       O395   2.143       .  S
Zn387       O398   2.128       .  S
Zn387       O399   2.133       .  S
O389        C401   1.284       .  A
O390        C402   1.287       .  A
O391        C403   1.285       .  A
O392        C401   1.287       .  A
O393        C403   1.286       .  A
O394        C402   1.286       .  A
O395        C404   1.290       .  A
O396        C405   1.286       .  A
O397        C404   1.285       .  A
O398        C405   1.288       .  A
O399        C406   1.288       .  A
O400        C406   1.285       .  A
C401        N421   1.472       .  S
C402        N435   1.475       .  S
C403        N442   1.466       .  S
C404        N428   1.476       .  S
C405        N407   1.472       .  S
C406        N414   1.474       .  S
N407        C411   1.376   1_455  A
N407        C408   1.376   1_455  A
C408       C1046   1.442       .  S
C408        C409   1.375       .  A
C409        C410   1.355       .  A
C409        H412   1.083       .  S
C410        C411   1.376       .  A
C410        H413   1.083       .  S
C411        C947   1.441       .  S
N414        C418   1.373       .  A
N414        C415   1.372       .  A
C415        C946   1.443       .  S
C415        C416   1.377       .  A
C416        C417   1.359       .  A
C416        H419   1.083       .  S
C417        C418   1.376       .  A
C417        H420   1.084       .  S
C418        C966   1.445       .  S
N421        C425   1.372       .  A
N421        C422   1.369       .  A
C422       C1052   1.438       .  S
C422        C423   1.376       .  A
C423        C424   1.358       .  A
C423        H426   1.083       .  S
C424        C425   1.377       .  A
C424        H427   1.083       .  S
C425        C969   1.441       .  S
N428        C432   1.382       .  A
N428        C429   1.378       .  A
C429        C943   1.445       .  S
C429        C430   1.376       .  A
C430        C431   1.356       .  A
C430        H433   1.083       .  S
C431        C432   1.376       .  A
C431        H434   1.084       .  S
C432       C1002   1.451       .  S
N435        C439   1.377       .  A
N435        C436   1.377       .  A
C436       C1047   1.443       .  S
C436        C437   1.376       .  A
C437        C438   1.355       .  A
C437        H440   1.084       .  S
C438        C439   1.375       .  A
C438        H441   1.082       .  S
C439       C1004   1.440       .  S
N442        C446   1.367       .  A
N442        C443   1.369       .  A
C443       C1007   1.451       .  S
C443        C444   1.378       .  A
C444        C445   1.364       .  A
C444        H447   1.083       .  S
C445        C446   1.377       .  A
C445        H448   1.082       .  S
C446        C972   1.449       .  S
Zn449       O453   1.848       .  S
Zn449       O454   1.937       .  S
Zn449       O458   1.943       .  S
Zn449       O465   1.940       .  S
Zn450       O453   1.905       .  S
Zn450       O455   2.028   1_455  S
Zn450       O457   2.122       .  S
Zn450       O461   2.026       .  S
Zn451       O453   1.893   1_655  S
Zn451       O456   2.118       .  S
Zn451       O459   2.014       .  S
Zn451       O462   2.030       .  S
Zn452       O453   1.906       .  S
Zn452       O460   2.025   1_455  S
Zn452       O463   2.009       .  S
Zn452       O464   2.131       .  S
O454        C466   1.258       .  A
O455        C467   1.275       .  A
O456        C468   1.287       .  A
O457        C466   1.287       .  A
O458        C468   1.261   1_455  A
O459        C467   1.276       .  A
O460        C469   1.277       .  A
O461        C470   1.277       .  A
O462        C469   1.277       .  A
O463        C470   1.276       .  A
O464        C471   1.286       .  A
O465        C471   1.257       .  A
C466        C945   1.442       .  S
C467        C939   1.446       .  S
C468        C948   1.444       .  S
C469        C941   1.448       .  S
C470        C937   1.445       .  S
C471        C944   1.446       .  S
Zn472       O476   2.027       .  S
Zn472       O477   2.103       .  S
Zn472       O481   2.120       .  S
Zn472       O488   2.121       .  S
Zn473       O476   2.034       .  S
Zn473       O478   2.110       .  S
Zn473       O480   2.124       .  S
Zn473       O484   2.105       .  S
Zn474       O476   2.023       .  S
Zn474       O479   2.120       .  S
Zn474       O482   2.104       .  S
Zn474       O485   2.108       .  S
Zn475       O476   2.027       .  S
Zn475       O483   2.114       .  S
Zn475       O486   2.097       .  S
Zn475       O487   2.111       .  S
O477        C489   1.285       .  A
O478        C490   1.286       .  A
O479        C491   1.288       .  A
O480        C489   1.288       .  A
O481        C491   1.287       .  A
O482        C490   1.284       .  A
O483        C492   1.285       .  A
O484        C493   1.284       .  A
O485        C492   1.286       .  A
O486        C493   1.285       .  A
O487        C494   1.286       .  A
O488        C494   1.287       .  A
C489        N509   1.471       .  S
C490        N495   1.470       .  S
C491        N523   1.473       .  S
C492        N530   1.470       .  S
C493        N516   1.467       .  S
C494        N502   1.472       .  S
N495        C499   1.371       .  A
N495        C496   1.369       .  A
C496        C950   1.447   1_556  S
C496        C497   1.377   1_556  A
C497        C498   1.360       .  A
C497        H500   1.083       .  S
C498        C499   1.377   1_554  A
C498        H501   1.084       .  S
C499       C1039   1.448   1_556  S
N502        C506   1.370       .  A
N502        C503   1.370       .  A
C503        C936   1.448       .  S
C503        C504   1.377       .  A
C504        C505   1.361       .  A
C504        H507   1.082       .  S
C505        C506   1.378       .  A
C505        H508   1.084       .  S
C506        C940   1.449       .  S
N509        C513   1.376       .  A
N509        C510   1.377       .  A
C510        C942   1.443       .  S
C510        C511   1.375       .  A
C511        C512   1.355       .  A
C511        H514   1.084       .  S
C512        C513   1.376       .  A
C512        H515   1.083       .  S
C513        C952   1.442       .  S
N516        C520   1.370       .  A
N516        C517   1.367       .  A
C517        C933   1.442       .  S
C517        C518   1.376       .  A
C518        C519   1.361       .  A
C518        H521   1.083       .  S
C519        C520   1.378       .  A
C519        H522   1.083       .  S
C520        C954   1.445       .  S
N523        C527   1.373   1_655  A
N523        C524   1.374   1_655  A
C524        C938   1.444       .  S
C524        C525   1.377       .  A
C525        C526   1.358       .  A
C525        H528   1.084       .  S
C526        C527   1.377       .  A
C526        H529   1.082       .  S
C527       C1043   1.442       .  S
N530        C534   1.370   1_565  A
N530        C531   1.373   1_565  A
C531        C932   1.444       .  S
C531        C532   1.378       .  A
C532        C533   1.359       .  A
C532        H535   1.082       .  S
C533        C534   1.375       .  A
C533        H536   1.084       .  S
C534       C1041   1.439       .  S
Zn537       O541   2.025       .  S
Zn537       O542   2.079       .  S
Zn537       O546   2.108       .  S
Zn537       O553   2.115       .  S
Zn538       O541   2.053       .  S
Zn538       O543   2.144       .  S
Zn538       O545   2.152       .  S
Zn538       O549   2.154       .  S
Zn539       O541   2.036       .  S
Zn539       O544   2.141       .  S
Zn539       O547   2.101       .  S
Zn539       O550   2.144       .  S
Zn540       O541   2.018       .  S
Zn540       O548   2.083       .  S
Zn540       O551   2.084       .  S
Zn540       O552   2.109       .  S
O542        C554   1.283       .  A
O543        C555   1.289       .  A
O544        C556   1.289       .  A
O545        C554   1.289       .  A
O546        C556   1.284       .  A
O547        C555   1.285       .  A
O548        C557   1.283       .  A
O549        C558   1.290       .  A
O550        C557   1.287       .  A
O551        C558   1.282       .  A
O552        C559   1.284       .  A
O553        C559   1.284       .  A
C554        N595   1.469       .  S
C555        N574   1.469       .  S
C556        N581   1.469       .  S
C557        N560   1.467       .  S
C558        N588   1.468       .  S
C559        N567   1.465       .  S
N560        C564   1.375   1_545  A
N560        C561   1.370   1_545  A
C561       C1057   1.442       .  S
C561        C562   1.374       .  A
C562        C563   1.355       .  A
C562        H565   1.083       .  S
C563        C564   1.377       .  A
C563        H566   1.084       .  S
C564        C929   1.448       .  S
N567        C571   1.371       .  A
N567        C568   1.371       .  A
C568       C1060   1.439       .  S
C568        C569   1.377       .  A
C569        C570   1.359       .  A
C569        H572   1.083       .  S
C570        C571   1.377       .  A
C570        H573   1.083       .  S
C571        C928   1.439       .  S
N574        C578   1.373       .  A
N574        C575   1.375       .  A
C575       C1014   1.443       .  S
C575        C576   1.375       .  A
C576        C577   1.353       .  A
C576        H579   1.083       .  S
C577        C578   1.376       .  A
C577        H580   1.083       .  S
C578        C925   1.443       .  S
N581        C585   1.373       .  A
N581        C582   1.376       .  A
C582       C1061   1.442       .  S
C582        C583   1.377       .  A
C583        C584   1.357       .  A
C583        H586   1.083       .  S
C584        C585   1.376       .  A
C584        H587   1.083       .  S
C585       C1015   1.441       .  S
N588        C592   1.373       .  A
N588        C589   1.372       .  A
C589        C922   1.433       .  S
C589        C590   1.374       .  A
C590        C591   1.353       .  A
C590        H593   1.084       .  S
C591        C592   1.376       .  A
C591        H594   1.083       .  S
C592        C924   1.436       .  S
N595        C599   1.372       .  A
N595        C596   1.372       .  A
C596        C919   1.451       .  S
C596        C597   1.376       .  A
C597        C598   1.358       .  A
C597        H600   1.083       .  S
C598        C599   1.377       .  A
C598        H601   1.083       .  S
C599       C1017   1.454       .  S
Zn602       O606   1.856       .  S
Zn602       O607   1.948       .  S
Zn602       O611   1.952       .  S
Zn602       O618   1.941       .  S
Zn603       O606   1.903       .  S
Zn603       O608   2.014       .  S
Zn603       O610   2.122       .  S
Zn603       O614   2.019   1_565  S
Zn604       O606   1.904       .  S
Zn604       O609   2.098       .  S
Zn604       O612   2.019       .  S
Zn604       O615   2.011   1_565  S
Zn605       O606   1.914   1_545  S
Zn605       O613   2.025       .  S
Zn605       O616   2.006       .  S
Zn605       O617   2.122       .  S
O607        C619   1.258       .  A
O608        C620   1.274       .  A
O609        C621   1.285       .  A
O610        C619   1.286       .  A
O611        C621   1.262       .  A
O612        C620   1.275       .  A
O613        C622   1.276       .  A
O614        C623   1.278       .  A
O615        C622   1.274       .  A
O616        C623   1.273       .  A
O617        C624   1.287       .  A
O618        C624   1.259   1_565  A
C619        C935   1.443       .  S
C620        C930   1.448       .  S
C621        C934   1.439       .  S
C622        C926   1.446       .  S
C623        C923   1.443       .  S
C624        C931   1.443       .  S
Zn625       O629   1.902       .  S
Zn625       O630   2.011       .  S
Zn625       O634   2.019       .  S
Zn625       O641   2.122       .  S
Zn626       O629   1.905       .  S
Zn626       O631   2.020       .  S
Zn626       O633   1.998       .  S
Zn626       O637   2.128       .  S
Zn627       O629   1.891       .  S
Zn627       O632   2.040       .  S
Zn627       O635   2.007       .  S
Zn627       O638   2.098       .  S
Zn628       O629   1.842       .  S
Zn628       O636   1.954       .  S
Zn628       O639   1.944       .  S
Zn628       O640   1.906       .  S
O630        C642   1.277       .  A
O631        C643   1.274       .  A
O632        C644   1.278       .  A
O633        C642   1.276       .  A
O634        C644   1.275       .  A
O635        C643   1.275       .  A
O636        C645   1.266       .  A
O637        C646   1.285       .  A
O638        C645   1.287       .  A
O639        C646   1.255       .  A
O640        C647   1.255       .  A
O641        C647   1.287       .  A
C642        C915   1.438       .  S
C643        C917   1.443       .  S
C644        C913   1.450       .  S
C645        C927   1.442       .  S
C646        C920   1.445       .  S
C647        C921   1.433       .  S
Zn648       O652   2.031       .  S
Zn648       O653   2.112       .  S
Zn648       O657   2.113       .  S
Zn648       O664   2.115       .  S
Zn649       O652   2.033       .  S
Zn649       O654   2.131       .  S
Zn649       O656   2.120       .  S
Zn649       O660   2.131       .  S
Zn650       O652   2.036       .  S
Zn650       O655   2.122       .  S
Zn650       O658   2.120       .  S
Zn650       O661   2.111       .  S
Zn651       O652   2.038       .  S
Zn651       O659   2.138       .  S
Zn651       O662   2.116       .  S
Zn651       O663   2.120       .  S
O653        C665   1.285       .  A
O654        C666   1.289       .  A
O655        C667   1.286       .  A
O656        C665   1.287       .  A
O657        C667   1.287       .  A
O658        C666   1.287       .  A
O659        C668   1.290       .  A
O660        C669   1.289       .  A
O661        C668   1.285       .  A
O662        C669   1.286       .  A
O663        C670   1.286       .  A
O664        C670   1.286       .  A
C665        N699   1.472       .  S
C666        N671   1.475       .  S
C667        N692   1.472       .  S
C668        N685   1.475       .  S
C669        N706   1.474       .  S
C670        N678   1.472       .  S
N671        C675   1.377       .  A
N671        C672   1.378       .  A
C672        C964   1.448       .  S
C672        C673   1.376       .  A
C673        C674   1.357       .  A
C673        H676   1.084       .  S
C674        C675   1.377       .  A
C674        H677   1.083       .  S
C675        C911   1.447       .  S
N678        C682   1.374       .  A
N678        C679   1.373       .  A
C679       C1067   1.443       .  S
C679        C680   1.377       .  A
C680        C681   1.358       .  A
C680        H683   1.083       .  S
C681        C682   1.377       .  A
C681        H684   1.083       .  S
C682       C1023   1.445       .  S
N685        C689   1.375       .  A
N685        C686   1.377       .  A
C686        C962   1.436       .  S
C686        C687   1.375       .  A
C687        C688   1.350       .  A
C687        H690   1.083       .  S
C688        C689   1.375       .  A
C688        H691   1.083       .  S
C689       C1065   1.433       .  S
N692        C696   1.372       .  A
N692        C693   1.375       .  A
C693        C968   1.448       .  S
C693        C694   1.378       .  A
C694        C695   1.358       .  A
C694        H697   1.083       .  S
C695        C696   1.375       .  A
C695        H698   1.083       .  S
C696       C1028   1.446       .  S
N699        C703   1.370       .  A
N699        C700   1.372       .  A
C700       C1022   1.440       .  S
C700        C701   1.377       .  A
C701        C702   1.358       .  A
C701        H704   1.083       .  S
C702        C703   1.376       .  A
C702        H705   1.083       .  S
C703        C909   1.441       .  S
N706        C710   1.374   1_565  A
N706        C707   1.375       .  A
C707       C1064   1.451   1_565  S
C707        C708   1.377   1_565  A
C708        C709   1.359       .  A
C708        H711   1.083       .  S
C709        C710   1.377       .  A
C709        H712   1.083       .  S
C710        C907   1.446       .  S
Zn713       O717   1.854   1_565  S
Zn713       O718   1.940       .  S
Zn713       O722   1.944       .  S
Zn713       O729   1.946       .  S
Zn714       O717   1.911       .  S
Zn714       O719   2.029       .  S
Zn714       O721   2.124       .  S
Zn714       O725   2.023       .  S
Zn715       O717   1.895   1_565  S
Zn715       O720   2.109       .  S
Zn715       O723   2.027   1_565  S
Zn715       O726   2.013       .  S
Zn716       O717   1.908   1_565  S
Zn716       O724   2.019       .  S
Zn716       O727   2.004   1_565  S
Zn716       O728   2.129       .  S
O718        C730   1.258   1_565  A
O719        C731   1.275       .  A
O720        C732   1.286       .  A
O721        C730   1.287       .  A
O722        C732   1.261       .  A
O723        C731   1.278       .  A
O724        C733   1.277       .  A
O725        C734   1.277       .  A
O726        C733   1.275       .  A
O727        C734   1.274       .  A
O728        C735   1.286       .  A
O729        C735   1.259       .  A
C730        C908   1.444       .  S
C731        C905   1.451       .  S
C732        C910   1.440       .  S
C733        C902   1.444       .  S
C734        C903   1.441       .  S
C735        C912   1.448       .  S
Zn736       O740   2.031       .  S
Zn736       O741   2.124       .  S
Zn736       O745   2.105       .  S
Zn736       O752   2.115       .  S
Zn737       O740   2.033       .  S
Zn737       O742   2.114       .  S
Zn737       O744   2.121       .  S
Zn737       O748   2.117       .  S
Zn738       O740   2.034       .  S
Zn738       O743   2.116       .  S
Zn738       O746   2.131       .  S
Zn738       O749   2.120       .  S
Zn739       O740   2.032       .  S
Zn739       O747   2.129       .  S
Zn739       O750   2.102       .  S
Zn739       O751   2.137       .  S
O741        C753   1.287       .  A
O742        C754   1.285       .  A
O743        C755   1.287       .  A
O744        C753   1.288       .  A
O745        C755   1.286       .  A
O746        C754   1.289       .  A
O747        C756   1.288       .  A
O748        C757   1.287       .  A
O749        C756   1.286       .  A
O750        C757   1.286       .  A
O751        C758   1.289       .  A
O752        C758   1.285       .  A
C753        N780   1.474       .  S
C754        N766   1.474       .  S
C755        N773   1.470       .  S
C756        N759   1.475       .  S
C757        N794   1.470       .  S
C758        N787   1.475       .  S
N759        C763   1.380   1_554  A
N759        C760   1.378   1_554  A
C760        C985   1.441       .  S
C760        C761   1.375       .  A
C761        C762   1.353       .  A
C761        H764   1.083       .  S
C762        C763   1.376       .  A
C762        H765   1.083       .  S
C763       C1033   1.445       .  S
N766        C770   1.373   1_545  A
N766        C767   1.377   1_545  A
C767        C901   1.439       .  S
C767        C768   1.376       .  A
C768        C769   1.352       .  A
C768        H771   1.083       .  S
C769        C770   1.375       .  A
C769        H772   1.083       .  S
C770       C1038   1.433       .  S
N773        C777   1.371       .  A
N773        C774   1.371       .  A
C774       C1035   1.448   1_455  S
C774        C775   1.377   1_455  A
C775        C776   1.360       .  A
C775        H778   1.083       .  S
C776        C777   1.377   1_655  A
C776        H779   1.083       .  S
C777        C900   1.449   1_455  S
N780        C784   1.378       .  A
N780        C781   1.375       .  A
C781        C904   1.436       .  S
C781        C782   1.375       .  A
C782        C783   1.351       .  A
C782        H785   1.083       .  S
C783        C784   1.375       .  A
C783        H786   1.084       .  S
C784        C898   1.438       .  S
N787        C791   1.380       .  A
N787        C788   1.377       .  A
C788        C988   1.446       .  S
C788        C789   1.376       .  A
C789        C790   1.356       .  A
C789        H792   1.083       .  S
C790        C791   1.376       .  A
C790        H793   1.084       .  S
C791        C895   1.452       .  S
N794        C798   1.371       .  A
N794        C795   1.373       .  A
C795        C906   1.453       .  S
C795        C796   1.378       .  A
C796        C797   1.361       .  A
C796        H799   1.083       .  S
C797        C798   1.376       .  A
C797        H800   1.083       .  S
C798        C990   1.452       .  S
Zn801       O805   2.037       .  S
Zn801       O806   2.135       .  S
Zn801       O810   2.151       .  S
Zn801       O817   2.123       .  S
Zn802       O805   2.035       .  S
Zn802       O807   2.122       .  S
Zn802       O809   2.112       .  S
Zn802       O813   2.119       .  S
Zn803       O805   2.033       .  S
Zn803       O808   2.104       .  S
Zn803       O811   2.126       .  S
Zn803       O814   2.124       .  S
Zn804       O805   2.038       .  S
Zn804       O812   2.121       .  S
Zn804       O815   2.114       .  S
Zn804       O816   2.125       .  S
O806        C818   1.289       .  A
O807        C819   1.287       .  A
O808        C820   1.284       .  A
O809        C818   1.286       .  A
O810        C820   1.291       .  A
O811        C819   1.287       .  A
O812        C821   1.287       .  A
O813        C822   1.287       .  A
O814        C821   1.288       .  A
O815        C822   1.286       .  A
O816        C823   1.287       .  A
O817        C823   1.287       .  A
C818        N859   1.474       .  S
C819        N852   1.475       .  S
C820        N845   1.476       .  S
C821        N838   1.474       .  S
C822        N824   1.472       .  S
C823        N831   1.475       .  S
N824        C828   1.375       .  A
N824        C825   1.375       .  A
C825        C974   1.446       .  S
C825        C826   1.377       .  A
C826        C827   1.358       .  A
C826        H829   1.083       .  S
C827        C828   1.376       .  A
C827        H830   1.083       .  S
C828        C893   1.445       .  S
N831        C835   1.379       .  A
N831        C832   1.380       .  A
C832        C891   1.445       .  S
C832        C833   1.376       .  A
C833        C834   1.354       .  A
C833        H836   1.083       .  S
C834        C835   1.375       .  A
C834        H837   1.083       .  S
C835        C914   1.445       .  S
N838        C842   1.373   1_655  A
N838        C839   1.376   1_655  A
C839        C889   1.447       .  S
C839        C840   1.377       .  A
C840        C841   1.357       .  A
C840        H843   1.083       .  S
C841        C842   1.376       .  A
C841        H844   1.084       .  S
C842       C1049   1.443       .  S
N845        C849   1.375       .  A
N845        C846   1.377       .  A
C846       C1056   1.440       .  S
C846        C847   1.375       .  A
C847        C848   1.351       .  A
C847        H850   1.083       .  S
C848        C849   1.375       .  A
C848        H851   1.083       .  S
C849        C916   1.434       .  S
N852        C856   1.376       .  A
N852        C853   1.376       .  A
C853        C975   1.438       .  S
C853        C854   1.376       .  A
C854        C855   1.353       .  A
C854        H857   1.083       .  S
C855        C856   1.375       .  A
C855        H858   1.084       .  S
C856       C1053   1.437       .  S
N859        C863   1.370       .  A
N859        C860   1.374       .  A
C860        C980   1.446       .  S
C860        C861   1.377       .  A
C861        C862   1.359       .  A
C861        H864   1.085       .  S
C862        C863   1.378       .  A
C862        H865   1.082       .  S
C863        C918   1.444       .  S
Zn866       O870   1.907   1_655  S
Zn866       O871   2.138       .  S
Zn866       O875   2.018   1_655  S
Zn866       O882   2.029       .  S
Zn867       O870   1.848   1_655  S
Zn867       O872   1.936       .  S
Zn867       O874   1.939       .  S
Zn867       O878   1.942       .  S
Zn868       O870   1.897       .  S
Zn868       O873   2.009       .  S
Zn868       O876   2.140       .  S
Zn868       O879   2.036       .  S
Zn869       O870   1.897   1_655  S
Zn869       O877   2.043   1_655  S
Zn869       O880   2.131       .  S
Zn869       O881   2.019       .  S
O871        C883   1.288       .  A
O872        C884   1.258   1_655  A
O873        C885   1.275       .  A
O874        C883   1.257       .  A
O875        C885   1.277       .  A
O876        C884   1.288       .  A
O877        C886   1.278       .  A
O878        C887   1.260       .  A
O879        C886   1.279       .  A
O880        C887   1.289       .  A
O881        C888   1.277       .  A
O882        C888   1.276       .  A
C883        C892   1.449       .  S
C884        C890   1.448       .  S
C885        C897   1.444       .  S
C886        C896   1.457       .  S
C887        C894   1.446       .  S
C888        C899   1.449       .  S
C889        C890   1.215       .  T
C891        C892   1.216       .  T
C893        C894   1.214       .  T
C895        C896   1.219       .  T
C897        C898   1.212       .  T
C899        C900   1.215       .  T
C901        C902   1.212       .  T
C903        C904   1.210       .  T
C905        C906   1.217       .  T
C907        C908   1.214       .  T
C909        C910   1.210       .  T
C911        C912   1.215       .  T
C913        C914   1.215       .  T
C915        C916   1.209       .  T
C917        C918   1.212       .  T
C919        C920   1.215       .  T
C921        C922   1.208       .  T
C923        C924   1.211       .  T
C925        C926   1.213       .  T
C927        C928   1.210       .  T
C929        C930   1.215       .  T
C931        C932   1.213       .  T
C933        C934   1.210       .  T
C935        C936   1.214       .  T
C937        C938   1.213       .  T
C939        C940   1.214       .  T
C941        C942   1.214       .  T
C943        C944   1.214       .  T
C945        C946   1.212       .  T
C947        C948   1.212       .  T
C949        C950   1.213       .  T
C951        C952   1.213       .  T
C953        C954   1.213       .  T
C955        C956   1.211       .  T
C957        C958   1.213       .  T
C959        C960   1.211       .  T
C961        C962   1.211       .  T
C963        C964   1.217       .  T
C965        C966   1.213       .  T
C967        C968   1.216       .  T
C969        C970   1.212       .  T
C971        C972   1.214       .  T
C973        C974   1.215       .  T
C975        C976   1.211       .  T
C977        C978   1.214       .  T
C979        C980   1.214       .  T
C981        C982   1.214       .  T
C983        C984   1.216       .  T
C985        C986   1.213       .  T
C987        C988   1.215       .  T
C989        C990   1.216       .  T
C991        C992   1.208       .  T
C993        C994   1.213       .  T
C995        C996   1.215       .  T
C997        C998   1.215       .  T
C999       C1000   1.214       .  T
C1001      C1002   1.219       .  T
C1003      C1004   1.212       .  T
C1005      C1006   1.218       .  T
C1007      C1008   1.215       .  T
C1009      C1010   1.215       .  T
C1011      C1012   1.216       .  T
C1013      C1014   1.213       .  T
C1015      C1016   1.212       .  T
C1017      C1018   1.217       .  T
C1019      C1020   1.214       .  T
C1021      C1022   1.211       .  T
C1023      C1024   1.213       .  T
C1025      C1026   1.211       .  T
C1027      C1028   1.213       .  T
C1029      C1030   1.216       .  T
C1031      C1032   1.214       .  T
C1033      C1034   1.216       .  T
C1035      C1036   1.214       .  T
C1037      C1038   1.208       .  T
C1039      C1040   1.214       .  T
C1041      C1042   1.209       .  T
C1043      C1044   1.212       .  T
C1045      C1046   1.212       .  T
C1047      C1048   1.214       .  T
C1049      C1050   1.213       .  T
C1051      C1052   1.209       .  T
C1053      C1054   1.211       .  T
C1055      C1056   1.213       .  T
C1057      C1058   1.211       .  T
C1059      C1060   1.210       .  T
C1061      C1062   1.213       .  T
C1063      C1064   1.217       .  T
C1065      C1066   1.209       .  T
C1067      C1068   1.213       .  T
C1069      C1070   1.211       .  T
C1071      C1072   1.215       .  T
C1073      C1074   1.213       .  T
C1075      C1076   1.209       .  T
C1077      C1078   1.216       .  T
C1079      C1080   1.216       .  T
