geometry optimzed in LAMMPS
_audit_creation_date              2020-11-30 
_audit_creation_method            'lammps2cif' 
_symmetry_space_group_name_H-M    'P1' 
_symmetry_Int_Tables_number       1 
_symmetry_cell_setting            triclinic 
loop_ 
_symmetry_equiv_pos_as_xyz 
  x,y,z 
_cell_length_a                    41.57408522 
_cell_length_b                    41.479442075144576 
_cell_length_c                    41.9069723303696 
_cell_angle_alpha                 90.12451835235919 
_cell_angle_beta                  89.84943062426454 
_cell_angle_gamma                 90.08612836413309 
loop_ 
_atom_site_label 
_atom_site_type_symbol 
_atom_site_fract_x 
_atom_site_fract_y 
_atom_site_fract_z 
_atom_site_charge 
O1          O  0.86699695  0.52487978  0.78734926    -0.73000
O2          O  0.79649909  0.53002759  0.72205316    -0.74000
O3          O  0.79873784  0.52535231  0.78832357    -0.62600
O4          O  0.86476339  0.53062701  0.71949516    -0.71000
O5          O  0.86607916  0.47720321  0.71555272    -0.70600
O6          O  0.79743179  0.47219800  0.78365453    -0.61800
O7          O  0.79768093  0.47672901  0.71703224    -0.74300
O8          O  0.86532769  0.47148044  0.78316328    -0.73100
Cu9        Cu  0.83203609  0.52960716  0.75438830     1.04600
Cu10       Cu  0.83188064  0.47254946  0.74965260     1.04300
C11         C  0.87604996  0.49694829  0.79647188     0.93200
C12         C  0.78509913  0.50389809  0.71042451     0.92300
C13         C  0.78676713  0.49821679  0.79628875     0.84500
C14         C  0.87544494  0.50504243  0.70630544     0.90800
O15         O  0.53302374  0.72205397  0.75762799    -0.73000
O16         O  0.52995501  0.77947324  0.83568866    -0.74000
O17         O  0.53355634  0.71177492  0.82497597    -0.62600
O18         O  0.53155449  0.78873481  0.76903030    -0.71000
O19         O  0.47854594  0.78687232  0.76588929    -0.70600
O20         O  0.48017372  0.70953921  0.82571625    -0.61800
O21         O  0.47679750  0.77774177  0.83370391    -0.74300
O22         O  0.47972347  0.71916119  0.75819298    -0.73100
Cu23       Cu  0.53381508  0.75048123  0.79700544     1.04600
Cu24       Cu  0.47690110  0.74822894  0.79602604     1.04300
C25         C  0.50660049  0.71246422  0.74509719     0.93200
C26         C  0.50254417  0.78824397  0.84661443     0.92300
C27         C  0.50757346  0.69843305  0.83424450     0.84500
C28         C  0.50538535  0.79965271  0.75758359     0.90800
O29         O  0.74844978  0.77151251  0.51508476    -0.73000
O30         O  0.81548445  0.84204961  0.51068040    -0.74000
O31         O  0.74679956  0.84027087  0.51146334    -0.62600
O32         O  0.81596371  0.77396824  0.51575012    -0.71000
O33         O  0.81650631  0.77025584  0.46295658    -0.70600
O34         O  0.74503474  0.83611763  0.45864695    -0.61800
O35         O  0.81392797  0.83867308  0.45797461    -0.74300
O36         O  0.74902884  0.76807031  0.46225250    -0.73100
Cu37       Cu  0.78160146  0.80728999  0.51506938     1.04600
Cu38       Cu  0.78114144  0.80339267  0.45860623     1.04300
C39         C  0.73927919  0.75780203  0.48924334     0.93200
C40         C  0.82582342  0.85098115  0.48330064     0.92300
C41         C  0.73436784  0.84805104  0.48477991     0.84500
C42         C  0.82680396  0.76111999  0.49025896     0.90800
C43         C  0.58945685  0.44527947  0.94663163     0.45400
H44         H  0.60317324  0.42857952  0.93087756    -0.03600
C45         C  0.55717513  0.48394634  0.98306661     0.45500
H46         H  0.54154782  0.49953604  0.99776268    -0.03600
C47         C  0.59018464  0.48030041  0.93500741    -0.17300
C48         C  0.55384993  0.43644309  0.94898545    -0.17100
C49         C  0.60175799  0.44611325  0.98118591    -0.17400
C50         C  0.57215155  0.50074589  0.95363403    -0.17400
C51         C  0.53699200  0.45588142  0.96958703    -0.17000
C52         C  0.58645049  0.46881740  0.00058071    -0.17300
C53         C  0.55686747  0.52351829  0.52198542     0.45400
H54         H  0.54318465  0.50583427  0.50738664    -0.03600
C55         C  0.58951561  0.56457053  0.55566713     0.45500
H56         H  0.60377266  0.58232904  0.56957474    -0.03600
C57         C  0.57806037  0.50756181  0.54748717    -0.17300
C58         C  0.57944535  0.54501496  0.50198011    -0.17100
C59         C  0.53541952  0.54718114  0.54072855    -0.17400
C60         C  0.59776080  0.52892511  0.56330081    -0.17400
C61         C  0.59452269  0.56850950  0.51938792    -0.17000
C62         C  0.55269943  0.56745189  0.56091332    -0.17300
C63         C  0.47746302  0.94192841  0.55860696     0.45400
H64         H  0.46325735  0.92385922  0.57230615    -0.03600
C65         C  0.51028388  0.98365865  0.52624938     0.45500
H66         H  0.52398274  0.00132694  0.51174195    -0.03600
C67         C  0.46855785  0.97669048  0.56657098    -0.17300
C68         C  0.51363616  0.93963796  0.56443312    -0.17100
C69         C  0.47304842  0.93865251  0.52271122    -0.17400
C70         C  0.48788455  0.99945298  0.55172537    -0.17400
C71         C  0.53189989  0.95988785  0.54552240    -0.17000
C72         C  0.48824274  0.96208646  0.50528934    -0.17300
O73         O  0.54645093  0.29434903  0.74107140    -0.73000
O74         O  0.54299252  0.21988320  0.67924008    -0.74000
O75         O  0.55222713  0.28772190  0.67356366    -0.62600
O76         O  0.53851262  0.22755915  0.74615094    -0.71000
O77         O  0.48564817  0.23286124  0.74183569    -0.70600
O78         O  0.49984006  0.29574813  0.66951640    -0.61800
O79         O  0.49047197  0.22768091  0.67393166    -0.74300
O80         O  0.49380845  0.29997894  0.73703536    -0.73100
Cu81       Cu  0.54686161  0.25719645  0.70994166     1.04600
Cu82       Cu  0.49060513  0.26427918  0.70521063     1.04300
C83         C  0.52031020  0.30795574  0.75006667     0.93200
C84         C  0.51591472  0.21187635  0.66714591     0.92300
C85         C  0.52855308  0.30189984  0.66029016     0.84500
C86         C  0.51019615  0.22110631  0.75602786     0.90800
C87         C  0.46283443  0.05198639  0.94035386     0.45400
H88         H  0.44523740  0.06496807  0.92523622    -0.03600
C89         C  0.50351148  0.02040606  0.97508449     0.45500
H90         H  0.52079974  0.00620703  0.98938862    -0.03600
C91         C  0.49688657  0.06569271  0.93818944    -0.17300
C92         C  0.45450606  0.05249437  0.97611836    -0.17100
C93         C  0.46562472  0.01650529  0.93108256    -0.17400
C94         C  0.51834783  0.05026246  0.95803643    -0.17400
C95         C  0.47495182  0.03402743  0.99440363    -0.17000
C96         C  0.48751981  0.99987649  0.94895340    -0.17300
O97         O  0.81493823  0.16152208  0.98260839    -0.73000
O98         O  0.75009188  0.23382585  0.97198661    -0.74000
O99         O  0.81745782  0.22989955  0.97800105    -0.62600
O100        O  0.74656130  0.16476747  0.97494496    -0.71000
O101        O  0.74020408  0.16797652  0.02716244    -0.70600
O102        O  0.81199243  0.23368604  0.03054999    -0.61800
O103        O  0.74504459  0.23615695  0.02457180    -0.74300
O104        O  0.80810287  0.16518286  0.03484492    -0.73100
Cu105      Cu  0.78237124  0.19717186  0.97502640     1.04600
Cu106      Cu  0.77614046  0.20063619  0.03105073     1.04300
C107        C  0.82218988  0.15242464  0.01087255     0.93200
C108        C  0.73838436  0.24721917  0.99702569     0.92300
C109        C  0.82539789  0.24273604  0.00451390     0.84500
C110        C  0.73167748  0.15619047  0.00026177     0.90800
O111        O  0.19215741  0.96214352  0.78769092    -0.73000
O112        O  0.25916483  0.95462483  0.71773966    -0.74000
O113        O  0.26057169  0.95811476  0.78477334    -0.62600
O114        O  0.19063026  0.95730990  0.71929491    -0.71000
O115        O  0.19389716  0.01030100  0.71466700    -0.70600
O116        O  0.26227766  0.01153832  0.78294641    -0.61800
O117        O  0.26161697  0.00796220  0.71602683    -0.74300
O118        O  0.19363467  0.01538596  0.78248289    -0.73100
Cu119      Cu  0.22529485  0.95616503  0.75253891     1.04600
Cu120      Cu  0.22773016  0.01311383  0.74900924     1.04300
C121        C  0.18257607  0.99023573  0.79608689     0.93200
C122        C  0.27161524  0.98050774  0.70656616     0.92300
C123        C  0.27336709  0.98474020  0.79327512     0.84500
C124        C  0.18191852  0.98338384  0.70562926     0.90800
O125        O  0.06019143  0.77757354  0.23588171    -0.73000
O126        O  0.05095604  0.71117218  0.16593277    -0.74000
O127        O  0.05993551  0.77971992  0.16794752    -0.62600
O128        O  0.05241335  0.71049256  0.23370813    -0.71000
O129        O  0.99957883  0.71811171  0.23562530    -0.70600
O130        O  0.00712491  0.78638021  0.16842555    -0.61800
O131        O  0.99807434  0.71805360  0.16801929    -0.74300
O132        O  0.00736463  0.78467235  0.23545402    -0.73100
Cu133      Cu  0.05777386  0.74452419  0.20052443     1.04600
Cu134      Cu  0.00124581  0.75197789  0.20158421     1.04300
C135        C  0.03487649  0.79076614  0.24739423     0.93200
C136        C  0.02259279  0.70317626  0.15713525     0.92300
C137        C  0.03495483  0.79476156  0.15841121     0.84500
C138        C  0.02501318  0.70455697  0.24615124     0.90800
O139        O  0.32156121  0.66695017  0.46450679    -0.73000
O140        O  0.25763714  0.74029151  0.45822681    -0.74000
O141        O  0.32469194  0.73480896  0.46433981    -0.62600
O142        O  0.25297501  0.67116539  0.45687064    -0.71000
O143        O  0.24637847  0.67212446  0.50948142    -0.70600
O144        O  0.31930550  0.73520508  0.51692617    -0.61800
O145        O  0.25260062  0.73975717  0.51087427    -0.74300
O146        O  0.31431935  0.66735211  0.51674420    -0.73100
Cu147      Cu  0.28926872  0.70302578  0.45907008     1.04600
Cu148      Cu  0.28290250  0.70331259  0.51525174     1.04300
C149        C  0.32928172  0.65684907  0.49230919     0.93200
C150        C  0.24658928  0.75272826  0.48404565     0.92300
C151        C  0.33302649  0.74560250  0.49162263     0.84500
C152        C  0.23775180  0.66235650  0.48185581     0.90800
O153        O  0.71052023  0.55129668  0.21637358    -0.73000
O154        O  0.77668806  0.54322398  0.28637129    -0.74000
O155        O  0.77895611  0.54631377  0.21975565    -0.62600
O156        O  0.70787695  0.54918147  0.28454418    -0.71000
O157        O  0.70417494  0.49602087  0.28407069    -0.70600
O158        O  0.77459538  0.49302712  0.21777776    -0.61800
O159        O  0.77236398  0.49006221  0.28392357    -0.74300
O160        O  0.70580853  0.49798539  0.21635643    -0.73100
Cu161      Cu  0.74338757  0.54940728  0.25187827     1.04600
Cu162      Cu  0.73881984  0.49249622  0.25041459     1.04300
C163        C  0.69788484  0.52547755  0.20529435     0.93200
C164        C  0.78652453  0.51519011  0.29446515     0.92300
C165        C  0.78921754  0.51903758  0.20998896     0.84500
C166        C  0.69491424  0.52327702  0.29498898     0.90800
C167        C  0.96890649  0.55881180  0.45055851     0.45400
H168        H  0.95076790  0.57217958  0.43630668    -0.03600
C169        C  0.01069501  0.52694738  0.48348674     0.45500
H170        H  0.02834742  0.51302847  0.49775133    -0.03600
C171        C  0.96688736  0.52232617  0.44566618    -0.17300
C172        C  0.00379188  0.56816042  0.44264432    -0.17100
C173        C  0.96548662  0.56459459  0.48654014    -0.17400
C174        C  0.98937702  0.50535561  0.46243767    -0.17400
C175        C  0.02620230  0.55140797  0.46022747    -0.17000
C176        C  0.98737631  0.54713772  0.50423173    -0.17300
C177        C  0.09386521  0.94725376  0.43172561     0.45400
H178        H  0.10842533  0.93191595  0.41543893    -0.03600
C179        C  0.05920880  0.98194607  0.47028387     0.45500
H180        H  0.04400059  0.99623721  0.48684982    -0.03600
C181        C  0.05920758  0.93553487  0.43474280    -0.17300
C182        C  0.10709404  0.94822279  0.46555322    -0.17100
C183        C  0.09134693  0.98240176  0.42128859    -0.17400
C184        C  0.04117181  0.95275477  0.45623234    -0.17400
C185        C  0.08939295  0.96713289  0.48600287    -0.17000
C186        C  0.07194763  0.00085396  0.44082775    -0.17300
C187        C  0.97642100  0.44096345  0.05334137     0.45400
H188        H  0.96172477  0.42504798  0.06896996    -0.03600
C189        C  0.01195467  0.47783724  0.01803114     0.45500
H190        H  0.02714562  0.49398640  0.00315112    -0.03600
C191        C  0.97003862  0.47678078  0.05919610    -0.17300
C192        C  0.01260893  0.43652798  0.05869523    -0.17100
C193        C  0.97093973  0.43555582  0.01748595    -0.17400
C194        C  0.98971637  0.49640633  0.04125959    -0.17400
C195        C  0.03170301  0.45505116  0.03927370    -0.17000
C196        C  0.98926627  0.45572560  0.99860932    -0.17300
O197        O  0.36540318  0.00548468  0.28552581    -0.73000
O198        O  0.30237679  0.01253632  0.21319705    -0.74000
O199        O  0.29736398  0.00969723  0.27938685    -0.62600
O200        O  0.37024523  0.00907456  0.21799416    -0.71000
O201        O  0.36854639  0.95582877  0.21502548    -0.70600
O202        O  0.29330916  0.95643275  0.27625617    -0.61800
O203        O  0.30008742  0.95923262  0.20985829    -0.74300
O204        O  0.36160172  0.95216820  0.28329483    -0.73100
Cu205      Cu  0.33420701  0.01094995  0.24919709     1.04600
Cu206      Cu  0.33107651  0.95397376  0.24608422     1.04300
C207        C  0.37305838  0.97766926  0.29615043     0.93200
C208        C  0.29040036  0.98698739  0.20089252     0.92300
C209        C  0.28259811  0.98359246  0.28609420     0.84500
C210        C  0.38067574  0.98276684  0.20612086     0.90800
C211        C  0.09592208  0.06154607  0.05575066     0.45400
H212        H  0.11494148  0.07525895  0.06832182    -0.03600
C213        C  0.05277971  0.02755224  0.02628172     0.45500
H214        H  0.03343950  0.01355607  0.01469345    -0.03600
C215        C  0.10023440  0.06115339  0.01932581    -0.17300
C216        C  0.09597639  0.02622176  0.06553599    -0.17100
C217        C  0.06143463  0.07370193  0.06197427    -0.17400
C218        C  0.07804544  0.04226339  0.00306995    -0.17400
C219        C  0.07213746  0.00835687  0.05157930    -0.17000
C220        C  0.03888451  0.05685145  0.04449157    -0.17300
O221        O  0.03761509  0.29571554  0.33630077    -0.73000
O222        O  0.04956570  0.23243305  0.26401794    -0.74000
O223        O  0.04036427  0.29985774  0.26890416    -0.62600
O224        O  0.04821650  0.22851154  0.33136658    -0.71000
O225        O  0.99551688  0.22138819  0.33102425    -0.70600
O226        O  0.98768974  0.29230846  0.26545653    -0.61800
O227        O  0.99676399  0.22472047  0.26320930    -0.74300
O228        O  0.98474504  0.28892127  0.33282099    -0.73100
Cu229      Cu  0.04576435  0.26440211  0.30026752     1.04600
Cu230      Cu  0.98932622  0.25652152  0.29812957     1.04300
C231        C  0.00905789  0.30242863  0.34561438     0.93200
C232        C  0.02469573  0.21889590  0.25199142     0.92300
C233        C  0.01320447  0.30742820  0.25705841     0.84500
C234        C  0.02340501  0.21365304  0.34146661     0.90800
O235        O  0.25017101  0.26480889  0.04186886    -0.73000
O236        O  0.32365525  0.32886135  0.04288524    -0.74000
O237        O  0.25524555  0.33292651  0.04922804    -0.62600
O238        O  0.31704811  0.26044874  0.03715693    -0.71000
O239        O  0.31318274  0.26491625  0.98455429    -0.70600
O240        O  0.25131119  0.33906497  0.99680885    -0.61800
O241        O  0.31921883  0.33278797  0.99021322    -0.74300
O242        O  0.24685400  0.27095658  0.98955102    -0.73100
Cu243      Cu  0.28671262  0.29685738  0.04468266     1.04600
Cu244      Cu  0.28253691  0.30240992  0.98853233     1.04300
C245        C  0.23791427  0.25678807  0.01497486     0.93200
C246        C  0.33329026  0.34027110  0.01614824     0.92300
C247        C  0.24294230  0.34706247  0.02517163     0.84500
C248        C  0.32360598  0.25010664  0.00919158     0.90800
C249        C  0.18287288  0.19207287  0.98118728    -0.11400
C250        C  0.18199991  0.16991411  0.00633956     0.15100
C251        C  0.19837858  0.17729833  0.03503639     0.02000
C252        C  0.21518310  0.20642500  0.03760976    -0.15800
C253        C  0.21556348  0.22897492  0.01262455    -0.10600
C254        C  0.19824785  0.22180931  0.98435219     0.08700
C255        C  0.16169652  0.14079550  0.00260409     0.09800
S256        S  0.19959009  0.15094578  0.06929267    -0.24900
H257        H  0.22859023  0.21117359  0.05925975     0.20000
S258        S  0.19345995  0.24967053  0.95173713    -0.30600
H259        H  0.17022194  0.18664170  0.95922579     0.10300
C260        C  0.12819646  0.14365927  0.99825969     0.03600
C261        C  0.10909331  0.11601258  0.99962602    -0.12900
C262        C  0.12229054  0.08556067  0.00534277    -0.08600
C263        C  0.15599330  0.08238966  0.00652103     0.07000
C264        C  0.17545749  0.10997255  0.00492321    -0.13700
S265        S  0.10886275  0.18265138  0.99571406    -0.30600
H266        H  0.08334649  0.11835558  0.99882147     0.11200
S267        S  0.17518997  0.04401329  0.01126132    -0.27700
H268        H  0.20130627  0.10757787  0.00712108     0.08500
H269        H  0.18898608  0.27666131  0.97168133     0.26900
H270        H  0.07754427  0.17131799  0.98980320     0.21700
H271        H  0.15058133  0.02681085  0.99572167     0.27000
H272        H  0.17102634  0.13413345  0.06346338     0.15900
C273        C  0.00897454  0.17310694  0.17496422    -0.11400
C274        C  0.03476193  0.15143968  0.17461924     0.15100
C275        C  0.05715961  0.15191036  0.19992138     0.02000
C276        C  0.05371520  0.17449969  0.22455324    -0.15800
C277        C  0.02800614  0.19637852  0.22483116    -0.10600
C278        C  0.00549321  0.19568092  0.19952850     0.08700
C279        C  0.04018732  0.13191207  0.14553722     0.09800
S280        S  0.09061732  0.12435606  0.20202914    -0.24900
H281        H  0.07093769  0.17463280  0.24392499     0.20000
S282        S  0.97321774  0.22441752  0.19581384    -0.30600
H283        H  0.99225902  0.17339458  0.15515463     0.10300
C284        C  0.01967586  0.10653104  0.13657400     0.03600
C285        C  0.02650504  0.08885202  0.10879786    -0.12900
C286        C  0.05322639  0.09614911  0.08922734    -0.08600
C287        C  0.07258337  0.12298522  0.09781306     0.07000
C288        C  0.06599673  0.14016847  0.12583535    -0.13700
S289        S  0.98558830  0.09575557  0.16113636    -0.30600
H290        H  0.01128073  0.06862554  0.10299274     0.11200
S291        S  0.10391661  0.13822734  0.07248835    -0.27700
H292        H  0.08068917  0.16074284  0.13230711     0.08500
H293        H  0.99154522  0.25082458  0.20652143     0.26900
H294        H  0.97217585  0.07307839  0.13997050     0.21700
H295        H  0.11904232  0.15819555  0.09511605     0.27000
H296        H  0.07574158  0.09912902  0.18510494     0.15900
C297        C  0.22908135  0.02011063  0.14241194    -0.11400
C298        C  0.20449484  0.99709246  0.14529876     0.15100
C299        C  0.20972211  0.96928040  0.16383251     0.02000
C300        C  0.23890462  0.96566942  0.17998332    -0.15800
C301        C  0.26309909  0.98937926  0.17834731    -0.10600
C302        C  0.25840441  0.01637265  0.15833618     0.08700
C303        C  0.17452342  0.00192151  0.12704442     0.09800
S304        S  0.17997024  0.93787110  0.16836078    -0.24900
H305        H  0.24206037  0.94482149  0.19519315     0.20000
S306        S  0.28917032  0.04618781  0.15117324    -0.30600
H307        H  0.22551039  0.04094485  0.12726259     0.10300
C308        C  0.15090230  0.02406503  0.13704064     0.03600
C309        C  0.12419901  0.02981819  0.11747033    -0.12900
C310        C  0.12077838  0.01402444  0.08799153    -0.08600
C311        C  0.14429099  0.99129732  0.07841900     0.07000
C312        C  0.17064119  0.98525015  0.09828210    -0.13700
S313        S  0.15522442  0.04547884  0.17434469    -0.30600
H314        H  0.10648834  0.04761464  0.12449805     0.11200
S315        S  0.14343597  0.97256097  0.03956218    -0.27700
H316        H  0.18924022  0.96862197  0.09074975     0.08500
H317        H  0.31498484  0.02437427  0.15324760     0.26900
H318        H  0.12601774  0.06242748  0.17267908     0.21700
H319        H  0.16841228  0.95036745  0.04475029     0.27000
H320        H  0.15275318  0.95744269  0.16418768     0.15900
C321        C  0.18706180  0.41945034  0.01732037    -0.11400
C322        C  0.16248513  0.41092651  0.03884912     0.15100
C323        C  0.16561352  0.38230308  0.05677273     0.02000
C324        C  0.19317298  0.36321638  0.05301606    -0.15800
C325        C  0.21716320  0.37107684  0.03066612    -0.10600
C326        C  0.21424991  0.39989898  0.01299496     0.08700
C327        C  0.13170961  0.42923077  0.03847393     0.09800
S328        S  0.13309224  0.36784775  0.08172480    -0.24900
H329        H  0.19506184  0.34082003  0.06610598     0.20000
S330        S  0.24405799  0.41301792  0.98449691    -0.30600
H331        H  0.18458879  0.44111606  0.00313355     0.10300
C332        C  0.11824132  0.44367411  0.06595263     0.03600
C333        C  0.08611015  0.45429714  0.06527974    -0.12900
C334        C  0.06750904  0.45159326  0.03741199    -0.08600
C335        C  0.08278907  0.44137318  0.00890899     0.07000
C336        C  0.11437567  0.42982159  0.00994044    -0.13700
S337        S  0.14183777  0.44838403  0.10177121    -0.30600
H338        H  0.07515172  0.46389267  0.08671559     0.11200
S339        S  0.06225257  0.44113389  0.97114600    -0.27700
H340        H  0.12526372  0.41977313  0.98864055     0.08500
H341        H  0.27049178  0.39919149  0.00010952     0.26900
H342        H  0.11768648  0.46309342  0.12030118     0.21700
H343        H  0.08665037  0.42660921  0.95282158     0.27000
H344        H  0.14989996  0.34211788  0.09571907     0.15900
C345        C  0.03675583  0.37761717  0.20408429    -0.11400
C346        C  0.01630829  0.37257310  0.17804196     0.15100
C347        C  0.99174455  0.34909718  0.18019707     0.02000
C348        C  0.99014500  0.32912901  0.20698421    -0.15800
C349        C  0.01201586  0.33266129  0.23220074    -0.10600
C350        C  0.03437549  0.35843684  0.23147972     0.08700
C351        C  0.02204636  0.39067522  0.14820932     0.09800
S352        S  0.96223797  0.34299321  0.14922465    -0.24900
H353        H  0.97235553  0.31002258  0.20760684     0.20000
S354        S  0.05959239  0.36757136  0.26541983    -0.30600
H355        H  0.05506835  0.39614895  0.20258112     0.10300
C356        C  0.01691841  0.42416523  0.14641075     0.03600
C357        C  0.01770842  0.43909725  0.11657026    -0.12900
C358        C  0.02327532  0.42130204  0.08858818    -0.08600
C359        C  0.03168413  0.38847913  0.09073341     0.07000
C360        C  0.03094585  0.37352100  0.12061746    -0.13700
S361        S  0.00630247  0.44743183  0.18138354    -0.30600
H362        H  0.01177900  0.46441076  0.11468121     0.11200
S363        S  0.04247786  0.36393858  0.05674378    -0.27700
H364        H  0.03595061  0.34794149  0.12224087     0.08500
H365        H  0.07153545  0.39715829  0.25403997     0.26900
H366        H  0.00531769  0.47773479  0.16637570     0.21700
H367        H  0.04223231  0.38810776  0.03345047     0.27000
H368        H  0.96177423  0.37513986  0.13861641     0.15900
C369        C  0.06028952  0.14965298  0.39530386    -0.11400
C370        C  0.03484235  0.12767682  0.39738035     0.15100
C371        C  0.00449358  0.13613149  0.38501181     0.02000
C372        C  0.00106927  0.16507122  0.36829735    -0.15800
C373        C  0.02716690  0.18630163  0.36408047    -0.10600
C374        C  0.05679243  0.17895638  0.37933817     0.08700
C375        C  0.04200391  0.09488418  0.40900746     0.09800
S376        S  0.96967805  0.11033472  0.38841055    -0.24900
H377        H  0.97802316  0.17035805  0.35751881     0.20000
S378        S  0.09152950  0.20503627  0.37912954    -0.30600
H379        H  0.08349045  0.14338096  0.40527230     0.10300
C380        C  0.04277797  0.06841581  0.38790962     0.03600
C381        C  0.05063630  0.03803467  0.39949127    -0.12900
C382        C  0.05988381  0.03333503  0.43141024    -0.08600
C383        C  0.05931615  0.05990294  0.45261372     0.07000
C384        C  0.05013894  0.09037064  0.44117066    -0.13700
S385        S  0.03573994  0.07196796  0.34555892    -0.30600
H386        H  0.05097196  0.01815215  0.38277847     0.11200
S387        S  0.07332915  0.05620172  0.49319971    -0.27700
H388        H  0.05018498  0.11102698  0.45700644     0.08500
H389        H  0.07371684  0.23306902  0.38535741     0.26900
H390        H  0.04993960  0.10254940  0.34213157     0.21700
H391        H  0.06571436  0.08773212  0.50301066     0.27000
H392        H  0.97978592  0.09388993  0.41590339     0.15900
C393        C  0.15674920  0.01844096  0.36959682    -0.11400
C394        C  0.15824447  0.99475837  0.34581868     0.15100
C395        C  0.13288727  0.97246354  0.34274396     0.02000
C396        C  0.10857881  0.97198540  0.36578558    -0.15800
C397        C  0.10939982  0.99285543  0.39228574    -0.10600
C398        C  0.13257202  0.01792460  0.39287706     0.08700
C399        C  0.18895643  0.99089385  0.32854975     0.09800
S400        S  0.13162246  0.94253421  0.31149579    -0.24900
H401        H  0.09027777  0.95338597  0.36442382     0.20000
S402        S  0.13475759  0.04713275  0.42467518    -0.30600
H403        H  0.17626050  0.03566530  0.37153533     0.10300
C404        C  0.20026545  0.01463753  0.30745054     0.03600
C405        C  0.23126319  0.01182016  0.29471446    -0.12900
C406        C  0.25132089  0.98575029  0.30268079    -0.08600
C407        C  0.23983575  0.96195178  0.32390599     0.07000
C408        C  0.20870292  0.96465320  0.33637109    -0.13700
S409        S  0.17494073  0.04810367  0.29624762    -0.30600
H410        H  0.23970930  0.02975401  0.27791598     0.11200
S411        S  0.26412008  0.92871491  0.33736541    -0.27700
H412        H  0.20018051  0.94679031  0.35325087     0.08500
H413        H  0.15612429  0.06853845  0.40949636     0.26900
H414        H  0.19697385  0.06296616  0.27540197     0.21700
H415        H  0.29315762  0.94618706  0.33780945     0.27000
H416        H  0.15051226  0.95989600  0.28955844     0.15900
C417        C  0.02290030  0.42581299  0.43368658    -0.11400
C418        C  0.99510190  0.40681916  0.43441070     0.15100
C419        C  0.96779298  0.41791202  0.45113279     0.02000
C420        C  0.96746335  0.44953310  0.46271305    -0.15800
C421        C  0.99401888  0.47005673  0.45841487    -0.10600
C422        C  0.02290635  0.45712099  0.44601024     0.08700
C423        C  0.99479267  0.37772695  0.41410845     0.09800
S424        S  0.93229988  0.39357316  0.45699541    -0.24900
H425        H  0.94587573  0.45859671  0.47398678     0.20000
S426        S  0.05951061  0.48026824  0.44371485    -0.30600
H427        H  0.04409250  0.41668493  0.42162214     0.10300
C428        C  0.97648461  0.37668489  0.38580145     0.03600
C429        C  0.98075363  0.35095119  0.36455598    -0.12900
C430        C  0.00360579  0.32685689  0.37051503    -0.08600
C431        C  0.02124550  0.32754148  0.39920981     0.07000
C432        C  0.01678858  0.35302203  0.42060277    -0.13700
S433        S  0.94987131  0.40943363  0.37520288    -0.30600
H434        H  0.96739365  0.35038689  0.34240976     0.11200
S435        S  0.04935957  0.29648701  0.40999749    -0.27700
H436        H  0.03104557  0.35401129  0.44220200     0.08500
H437        H  0.07956871  0.45571109  0.43186343     0.26900
H438        H  0.93893430  0.39640915  0.34617162     0.21700
H439        H  0.03110661  0.27126595  0.39667629     0.27000
H440        H  0.94767316  0.36362828  0.45327670     0.15900
C441        C  0.88807206  0.49873733  0.40770810    -0.11400
C442        C  0.89695961  0.49699202  0.37556151     0.15100
C443        C  0.92988606  0.49795492  0.36719836     0.02000
C444        C  0.95290125  0.50322486  0.39105000    -0.15800
C445        C  0.94350004  0.50830911  0.42282922    -0.10600
C446        C  0.91095315  0.50438470  0.43136062     0.08700
C447        C  0.87084384  0.49944888  0.35186546     0.09800
S448        S  0.94371754  0.49416286  0.32657088    -0.24900
H449        H  0.97808530  0.50502040  0.38456197     0.20000
S450        S  0.89792421  0.50776415  0.47211857    -0.30600
H451        H  0.86280031  0.49784185  0.41401155     0.10300
C452        C  0.84703422  0.47547862  0.34913953     0.03600
C453        C  0.81952177  0.48158061  0.33086768    -0.12900
C454        C  0.81550677  0.51102468  0.31466634    -0.08600
C455        C  0.84062727  0.53414295  0.31596568     0.07000
C456        C  0.86749351  0.52840045  0.33508722    -0.13700
S457        S  0.85189413  0.43706502  0.36877905    -0.30600
H458        H  0.80099807  0.46328630  0.32930073     0.11200
S459        S  0.84098003  0.57063523  0.29274496    -0.27700
H460        H  0.88595068  0.54678432  0.33707847     0.08500
H461        H  0.86645385  0.49615737  0.46757715     0.26900
H462        H  0.82453009  0.42214481  0.35567008     0.21700
H463        H  0.83296573  0.55481241  0.26408962     0.27000
H464        H  0.91700377  0.47660046  0.31551643     0.15900
C465        C  0.87076490  0.49333257  0.17777392    -0.11400
C466        C  0.87576985  0.51598527  0.15356585     0.15100
C467        C  0.85287577  0.54059407  0.14878253     0.02000
C468        C  0.82493176  0.54126787  0.16758374    -0.15800
C469        C  0.81921975  0.51768799  0.19096248    -0.10600
C470        C  0.84309176  0.49411478  0.19669180     0.08700
C471        C  0.90056782  0.50840842  0.12947001     0.09800
S472        S  0.85707165  0.57054045  0.11789664    -0.24900
H473        H  0.80714991  0.55984867  0.16338176     0.20000
S474        S  0.84017211  0.46479622  0.22819093    -0.30600
H475        H  0.88815506  0.47421428  0.18126785     0.10300
C476        C  0.93277288  0.51867291  0.13172055     0.03600
C477        C  0.95514978  0.50835244  0.10858824    -0.12900
C478        C  0.94586065  0.48774934  0.08344336    -0.08600
C479        C  0.91354063  0.47688179  0.08234060     0.07000
C480        C  0.89140745  0.48777325  0.10489378    -0.13700
S481        S  0.94518987  0.54468367  0.16396718    -0.30600
H482        H  0.97998802  0.51583153  0.11049313     0.11200
S483        S  0.89905164  0.44953867  0.05233422    -0.27700
H484        H  0.86659398  0.47982673  0.10372333     0.08500
H485        H  0.83026391  0.48757240  0.25096105     0.26900
H486        H  0.97728199  0.54846900  0.15388470     0.21700
H487        H  0.87061230  0.44001457  0.06797413     0.27000
H488        H  0.89078628  0.56947348  0.11585453     0.15900
C489        C  0.15167834  0.63350755  0.48597184    -0.11400
C490        C  0.15407309  0.60246294  0.47282299     0.15100
C491        C  0.18435657  0.59124828  0.46214650     0.02000
C492        C  0.21136577  0.61140294  0.46473644    -0.15800
C493        C  0.20888420  0.64212014  0.47862087    -0.10600
C494        C  0.17861609  0.65331504  0.48903561     0.08700
C495        C  0.12399114  0.58354313  0.46955256     0.09800
S496        S  0.19024704  0.55142616  0.44582146    -0.24900
H497        H  0.23459210  0.60279205  0.45661279     0.20000
S498        S  0.17260683  0.69318473  0.50518453    -0.30600
H499        H  0.12841233  0.64258557  0.49349384     0.10300
C500        C  0.10514609  0.57606016  0.49650089     0.03600
C501        C  0.07405521  0.56402210  0.49228605    -0.12900
C502        C  0.06130629  0.55865509  0.46170607    -0.08600
C503        C  0.08173045  0.56253463  0.43477953     0.07000
C504        C  0.11246868  0.57579740  0.43902987    -0.13700
S505        S  0.12036673  0.58249817  0.53639129    -0.30600
H506        H  0.05901031  0.56031986  0.51305840     0.11200
S507        S  0.07122836  0.55055716  0.39466442    -0.27700
H508        H  0.12730186  0.58074135  0.41830590     0.08500
H509        H  0.19359854  0.70840918  0.48360251     0.26900
H510        H  0.09378030  0.56962979  0.55286908     0.21700
H511        H  0.04381481  0.53238207  0.40239012     0.27000
H512        H  0.16533186  0.53652724  0.46312577     0.15900
C513        C  0.20807193  0.83236915  0.50799567    -0.11400
C514        C  0.18875520  0.83870007  0.48150359     0.15100
C515        C  0.18905856  0.81709165  0.45534275     0.02000
C516        C  0.20826499  0.78940327  0.45657835    -0.15800
C517        C  0.22734573  0.78274852  0.48333402    -0.10600
C518        C  0.22775646  0.80516307  0.50898927     0.08700
C519        C  0.17004391  0.86896710  0.48119264     0.09800
S520        S  0.16574271  0.82339596  0.41964424    -0.24900
H521        H  0.20797923  0.77273527  0.43663209     0.20000
S522        S  0.25448134  0.80205392  0.54267552    -0.30600
H523        H  0.20859884  0.84940710  0.52764731     0.10300
C524        C  0.14260502  0.87307247  0.50058909     0.03600
C525        C  0.12401920  0.90101564  0.49735377    -0.12900
C526        C  0.13224354  0.92479268  0.47500147    -0.08600
C527        C  0.16098385  0.92160372  0.45721841     0.07000
C528        C  0.17963942  0.89374367  0.46059756    -0.13700
S529        S  0.12977353  0.84166926  0.52757202    -0.30600
H530        H  0.10178423  0.90327011  0.51061998     0.11200
S531        S  0.17381697  0.95265796  0.42981758    -0.27700
H532        H  0.20127082  0.89066439  0.44647690     0.08500
H533        H  0.28137227  0.79335151  0.52410251     0.26900
H534        H  0.10404875  0.85875169  0.54142126     0.21700
H535        H  0.20134908  0.93679299  0.41820311     0.27000
H536        H  0.14175335  0.84269519  0.43351434     0.15900
C537        C  0.04167695  0.94235110  0.10703740    -0.11400
C538        C  0.05031907  0.91456052  0.09008510     0.15100
C539        C  0.06441295  0.91752557  0.05963112     0.02000
C540        C  0.07035969  0.94819056  0.04720459    -0.15800
C541        C  0.06238595  0.97619382  0.06419943    -0.10600
C542        C  0.04772475  0.97311064  0.09452667     0.08700
C543        C  0.04697818  0.88304869  0.10603589     0.09800
S544        S  0.07715373  0.88324420  0.03626859    -0.24900
H545        H  0.08291990  0.94994891  0.02480437     0.20000
S546        S  0.03763379  0.00813277  0.11800973    -0.30600
H547        H  0.03110757  0.93980480  0.13054279     0.10300
C548        C  0.07295371  0.86925409  0.12250206     0.03600
C549        C  0.06867805  0.83970485  0.13809064    -0.12900
C550        C  0.03886823  0.82348995  0.13759058    -0.08600
C551        C  0.01322314  0.83707816  0.11990042     0.07000
C552        C  0.01740930  0.86692552  0.10491411    -0.13700
S553        S  0.11121514  0.88993431  0.12455497    -0.30600
H554        H  0.08842990  0.82979972  0.15166658     0.11200
S555        S  0.97493056  0.81741713  0.11459805    -0.27700
H556        H  0.99761849  0.87747725  0.09180635     0.08500
H557        H  0.02608220  0.99171619  0.14504478     0.26900
H558        H  0.12739409  0.86655087  0.14268619     0.21700
H559        H  0.98827874  0.78649448  0.11062524     0.27000
H560        H  0.05435019  0.86135723  0.04826158     0.15900
C561        C  0.99035781  0.62581446  0.12107649    -0.11400
C562        C  0.00991202  0.62240470  0.09402845     0.15100
C563        C  0.03305516  0.64639450  0.08701259     0.02000
C564        C  0.03710227  0.67240277  0.10806137    -0.15800
C565        C  0.01768064  0.67561059  0.13532688    -0.10600
C566        C  0.99397102  0.65201180  0.14183524     0.08700
C567        C  0.00688419  0.59207921  0.07557780     0.09800
S568        S  0.05798709  0.64526350  0.05172225    -0.24900
H569        H  0.05516038  0.69053121  0.10287499     0.20000
S570        S  0.96983891  0.65354630  0.17781941    -0.30600
H571        H  0.97289486  0.60718675  0.12642780     0.10300
C572        C  0.03099758  0.56827301  0.07675491     0.03600
C573        C  0.02530432  0.53818710  0.06272979    -0.12900
C574        C  0.99551529  0.53075941  0.04886023    -0.08600
C575        C  0.97158063  0.55484755  0.04694463     0.07000
C576        C  0.97766057  0.58526208  0.06021833    -0.13700
S577        S  0.06764897  0.57478857  0.09899549    -0.30600
H578        H  0.04329908  0.51946948  0.06470827     0.11200
S579        S  0.93246919  0.54843505  0.02933469    -0.27700
H580        H  0.95897510  0.60344478  0.05969495     0.08500
H581        H  0.95184988  0.62534851  0.17225710     0.26900
H582        H  0.08206736  0.54490473  0.09208201     0.21700
H583        H  0.93809926  0.51799346  0.01599482     0.27000
H584        H  0.03707165  0.62636253  0.03314793     0.15900
C585        C  0.03195886  0.63840239  0.38983923    -0.11400
C586        C  0.01711159  0.62958324  0.36104921     0.15100
C587        C  0.99812677  0.60156362  0.35978380     0.02000
C588        C  0.99507567  0.58259064  0.38685175    -0.15800
C589        C  0.00994362  0.59078043  0.41579837    -0.10600
C590        C  0.02816727  0.61972001  0.41750239     0.08700
C591        C  0.02100462  0.65002826  0.33258990     0.09800
S592        S  0.97684762  0.58869994  0.32445241    -0.24900
H593        H  0.98055884  0.56111766  0.38522478     0.20000
S594        S  0.04609734  0.63556012  0.45349933    -0.30600
H595        H  0.04609253  0.66035503  0.39085236     0.10300
C596        C  0.00397732  0.67915617  0.32968097     0.03600
C597        C  0.00499901  0.69585302  0.30073597    -0.12900
C598        C  0.02307755  0.68424220  0.27482018    -0.08600
C599        C  0.04062654  0.65534236  0.27792877     0.07000
C600        C  0.03928753  0.63842766  0.30683637    -0.13700
S601        S  0.97999000  0.69443184  0.36239627    -0.30600
H602        H  0.99203248  0.71834899  0.29837901     0.11200
S603        S  0.06320446  0.63901387  0.24474028    -0.27700
H604        H  0.05182444  0.61570489  0.30928605     0.08500
H605        H  0.03027135  0.61570273  0.47542938     0.26900
H606        H  0.97177192  0.72397614  0.34817072     0.21700
H607        H  0.07585869  0.61222431  0.26093396     0.27000
H608        H  0.96961178  0.61977678  0.31329308     0.15900
C609        C  0.06448495  0.84463704  0.31484783    -0.11400
C610        C  0.03750693  0.84436185  0.33506096     0.15100
C611        C  0.00957015  0.82768826  0.32569503     0.02000
C612        C  0.00927379  0.81150818  0.29648856    -0.15800
C613        C  0.03637869  0.81128657  0.27624521    -0.10600
C614        C  0.06415993  0.82859669  0.28546900     0.08700
C615        C  0.03843716  0.86440897  0.36411018     0.09800
S616        S  0.97372000  0.82579202  0.35001939    -0.24900
H617        H  0.98783262  0.79814497  0.29001471     0.20000
S618        S  0.09921591  0.83264952  0.26040256    -0.30600
H619        H  0.08564355  0.85830931  0.32164659     0.10300
C620        C  0.05952496  0.85744460  0.38931427     0.03600
C621        C  0.06408123  0.88029457  0.41349819    -0.12900
C622        C  0.04740172  0.90971382  0.41327091    -0.08600
C623        C  0.02441174  0.91548239  0.38901192     0.07000
C624        C  0.02006067  0.89259661  0.36496216    -0.13700
S625        S  0.08120509  0.81984532  0.39024514    -0.30600
H626        H  0.08183592  0.87588688  0.43186372     0.11200
S627        S  0.00181114  0.95227054  0.38492720    -0.27700
H628        H  0.00365371  0.89772687  0.34556393     0.08500
H629        H  0.08168961  0.83551234  0.23185672     0.26900
H630        H  0.08812096  0.82100884  0.42307118     0.21700
H631        H  0.02509003  0.97255528  0.39797516     0.27000
H632        H  0.98927418  0.82899373  0.37960604     0.15900
C633        C  0.11396418  0.02137284  0.84717546    -0.11400
C634        C  0.12420147  0.01187092  0.87760360     0.15100
C635        C  0.15214825  0.99268241  0.88045441     0.02000
C636        C  0.16922271  0.98363886  0.85304657    -0.15800
C637        C  0.15980389  0.99434175  0.82279655    -0.10600
C638        C  0.13155642  0.01300159  0.81982968     0.08700
C639        C  0.10517879  0.02138369  0.90609717     0.09800
S640        S  0.16825781  0.98045176  0.91850390    -0.24900
H641        H  0.19121400  0.96987212  0.85555569     0.20000
S642        S  0.11676910  0.02676171  0.78182981    -0.30600
H643        H  0.09225055  0.03557418  0.84476133     0.10300
C644        C  0.10329254  0.05352206  0.91661912     0.03600
C645        C  0.08955168  0.06018402  0.94651052    -0.12900
C646        C  0.07985490  0.03543997  0.96743911    -0.08600
C647        C  0.07664489  0.00400751  0.95404963     0.07000
C648        C  0.09005021  0.99735208  0.92397506    -0.13700
S649        S  0.12045570  0.08587319  0.89330329    -0.30600
H650        H  0.08708741  0.08487411  0.95361603     0.11200
S651        S  0.05470260  0.97198693  0.97311783    -0.27700
H652        H  0.08982630  0.97299107  0.91463776     0.08500
H653        H  0.12961352  0.00114305  0.76384032     0.26900
H654        H  0.11549923  0.11060323  0.91581699     0.21700
H655        H  0.05547937  0.94957269  0.94789829     0.27000
H656        H  0.15919302  0.00848530  0.93516040     0.15900
C657        C  0.13054573  0.00645906  0.63371124    -0.11400
C658        C  0.12849512  0.97677857  0.61780469     0.15100
C659        C  0.14091253  0.94892616  0.63253933     0.02000
C660        C  0.15597751  0.95159230  0.66227249    -0.15800
C661        C  0.15979909  0.98162962  0.67764198    -0.10600
C662        C  0.14548688  0.00915840  0.66353696     0.08700
C663        C  0.11649157  0.97629606  0.58459997     0.09800
S664        S  0.13967827  0.90947807  0.61417922    -0.24900
H665        H  0.16643853  0.93008394  0.67252670     0.20000
S666        S  0.14522835  0.04842226  0.68198357    -0.30600
H667        H  0.12078856  0.02784182  0.62251751     0.10300
C668        C  0.08575293  0.96455473  0.57638830     0.03600
C669        C  0.07685478  0.96289402  0.54403628    -0.12900
C670        C  0.09827547  0.97255464  0.51991916    -0.08600
C671        C  0.12853545  0.98552683  0.52856663     0.07000
C672        C  0.13730098  0.98703773  0.56061539    -0.13700
S673        S  0.05822027  0.95136484  0.60704603    -0.30600
H674        H  0.05364424  0.95312218  0.53739618     0.11200
S675        S  0.15698423  0.00117514  0.50011545    -0.27700
H676        H  0.16078592  0.99642522  0.56697177     0.08500
H677        H  0.13897323  0.03645362  0.71273730     0.26900
H678        H  0.03307449  0.94234416  0.58646229     0.21700
H679        H  0.13338181  0.01068879  0.47846000     0.27000
H680        H  0.14078827  0.91960682  0.58223424     0.15900
C681        C  0.89021041  0.09130999  0.99957359    -0.11400
C682        C  0.90549566  0.09381256  0.02929088     0.15100
C683        C  0.89107928  0.11223708  0.05366631     0.02000
C684        C  0.86302224  0.12944848  0.04726323    -0.15800
C685        C  0.84852822  0.12885221  0.01690521    -0.10600
C686        C  0.86164731  0.10815332  0.99326535     0.08700
C687        C  0.93917104  0.08290094  0.03235534     0.09800
S688        S  0.90890677  0.11704065  0.09264443    -0.24900
H689        H  0.85342229  0.14475654  0.06596371     0.20000
S690        S  0.84357902  0.10234209  0.95466457    -0.30600
H691        H  0.90126427  0.07710082  0.98079659     0.10300
C692        C  0.94759987  0.05112730  0.04051343     0.03600
C693        C  0.98024129  0.04323436  0.04458187    -0.12900
C694        C  0.00450580  0.06661897  0.04078576    -0.08600
C695        C  0.99565736  0.09841771  0.03217555     0.07000
C696        C  0.96320740  0.10605623  0.02821567    -0.13700
S697        S  0.91676908  0.02110742  0.04658129    -0.30600
H698        H  0.98690980  0.01892665  0.05116986     0.11200
S699        S  0.02506259  0.12950878  0.02467956    -0.27700
H700        H  0.95626277  0.13035267  0.02183092     0.08500
H701        H  0.81183544  0.10233793  0.96642749     0.26900
H702        H  0.93754091  0.99583673  0.05514357     0.21700
H703        H  0.00361824  0.15485085  0.01827038     0.27000
H704        H  0.92475670  0.08715382  0.09319551     0.15900
C705        C  0.89503500  0.29806145  0.98264667    -0.11400
C706        C  0.88796150  0.32523210  0.00133406     0.15100
C707        C  0.86109860  0.32452400  0.02202956     0.02000
C708        C  0.84172887  0.29692328  0.02323543    -0.15800
C709        C  0.84876137  0.26964516  0.00459860    -0.10600
C710        C  0.87601943  0.27021812  0.98431051     0.08700
C711        C  0.91076536  0.35263699  0.00120979     0.09800
S712        S  0.85005522  0.35805254  0.04729535    -0.24900
H713        H  0.82065329  0.29694651  0.03852260     0.20000
S714        S  0.88863798  0.23585840  0.96102404    -0.30600
H715        H  0.91609837  0.29825855  0.96734849     0.10300
C716        C  0.93925986  0.35085500  0.01898346     0.03600
C717        C  0.95887476  0.37801834  0.02145448    -0.12900
C718        C  0.95062638  0.40758319  0.00740040    -0.08600
C719        C  0.92219374  0.40914980  0.98868040     0.07000
C720        C  0.90288695  0.38144660  0.98554377    -0.13700
S721        S  0.94963310  0.31459150  0.04048410    -0.30600
H722        H  0.98031353  0.37660308  0.03576745     0.11200
S723        S  0.90708046  0.44546997  0.97048944    -0.27700
H724        H  0.88069070  0.38276957  0.97211431     0.08500
H725        H  0.87842847  0.21265029  0.98332142     0.26900
H726        H  0.97483833  0.32792614  0.05856525     0.21700
H727        H  0.92258238  0.46726289  0.99089089     0.27000
H728        H  0.88141755  0.36917852  0.05319169     0.15900
C729        C  0.43919614  0.01573960  0.14473478    -0.11400
C730        C  0.43697993  0.99197743  0.12103673     0.15100
C731        C  0.42221450  0.96222736  0.12849456     0.02000
C732        C  0.40578510  0.95882616  0.15752673    -0.15800
C733        C  0.40488608  0.98407849  0.17996303    -0.10600
C734        C  0.42395668  0.01187968  0.17436573     0.08700
C735        C  0.44716189  0.00049851  0.08811827     0.09800
S736        S  0.42231102  0.92834345  0.10141325    -0.24900
H737        H  0.39233383  0.93686708  0.16184257     0.20000
S738        S  0.42893064  0.04290040  0.20436316    -0.30600
H739        H  0.45156598  0.03808283  0.13936655     0.10300
C740        C  0.42446490  0.00311038  0.06329512     0.03600
C741        C  0.43460686  0.01291552  0.03298121    -0.12900
C742        C  0.46656793  0.02230558  0.02710322    -0.08600
C743        C  0.48922844  0.02039150  0.05219339     0.07000
C744        C  0.47928266  0.00919991  0.08229755    -0.13700
S745        S  0.38209269  0.99621241  0.07051704    -0.30600
H746        H  0.41729694  0.01381733  0.01376514     0.11200
S747        S  0.52992279  0.03503502  0.04728984    -0.27700
H748        H  0.49630478  0.00810296  0.10176802     0.08500
H749        H  0.45305655  0.06049781  0.18846356     0.26900
H750        H  0.37107052  0.00570365  0.04025533     0.21700
H751        H  0.54105319  0.02677681  0.07785547     0.27000
H752        H  0.45004831  0.93754828  0.08443662     0.15900
C753        C  0.35372239  0.96237289  0.83045834    -0.11400
C754        C  0.35652680  0.98590571  0.85426362     0.15100
C755        C  0.33165185  0.00876268  0.85834722     0.02000
C756        C  0.30475861  0.00779353  0.83830555    -0.15800
C757        C  0.30193714  0.98437530  0.81428306    -0.10600
C758        C  0.32702388  0.96160057  0.81020521     0.08700
C759        C  0.38714083  0.98844388  0.87193937     0.09800
S760        S  0.33337925  0.04075544  0.88754822    -0.24900
H761        H  0.28587461  0.02550771  0.84147750     0.20000
S762        S  0.32789310  0.93279894  0.77793439    -0.30600
H763        H  0.37316721  0.94537950  0.82673338     0.10300
C764        C  0.39158560  0.97340839  0.90167563     0.03600
C765        C  0.41896112  0.98092190  0.91976166    -0.12900
C766        C  0.44256963  0.00214080  0.90805495    -0.08600
C767        C  0.43928336  0.01467381  0.87690705     0.07000
C768        C  0.41150929  0.00800339  0.85938015    -0.13700
S769        S  0.36114518  0.94689302  0.91767515    -0.30600
H770        H  0.42067067  0.97219005  0.94397189     0.11200
S771        S  0.46890630  0.04050788  0.85868767    -0.27700
H772        H  0.40838697  0.01894548  0.83612943     0.08500
H773        H  0.31708684  0.95482940  0.75488020     0.26900
H774        H  0.37901137  0.93648017  0.94419215     0.21700
H775        H  0.49486489  0.02874932  0.87644687     0.27000
H776        H  0.35275176  0.02488069  0.90989223     0.15900
C777        C  0.41284358  0.12296376  0.01724298    -0.11400
C778        C  0.38612971  0.12667362  0.99746723     0.15100
C779        C  0.37923107  0.10299023  0.97435883     0.02000
C780        C  0.40040940  0.07710946  0.97023767    -0.15800
C781        C  0.42887280  0.07466800  0.98819152    -0.10600
C782        C  0.43450025  0.09754232  0.01283334     0.08700
C783        C  0.36844781  0.15743533  0.99949833     0.09800
S784        S  0.34498611  0.10555120  0.94819263    -0.24900
H785        H  0.39543464  0.05958819  0.95166069     0.20000
S786        S  0.47051559  0.09756073  0.03676138    -0.30600
H787        H  0.41778583  0.14144202  0.03486547     0.10300
C788        C  0.34721722  0.16382649  0.02486953     0.03600
C789        C  0.33364978  0.19458662  0.02777164    -0.12900
C790        C  0.34100725  0.21922141  0.00585728    -0.08600
C791        C  0.36259220  0.21268802  0.98057467     0.07000
C792        C  0.37578762  0.18181337  0.97750804    -0.13700
S793        S  0.33708554  0.13258977  0.05316493    -0.30600
H794        H  0.31671547  0.19930283  0.04688917     0.11200
S795        S  0.37567433  0.24300406  0.95266263    -0.27700
H796        H  0.39280361  0.17702994  0.95848354     0.08500
H797        H  0.46177051  0.12234466  0.05800955     0.26900
H798        H  0.31551554  0.15097511  0.07160445     0.21700
H799        H  0.37573852  0.26824042  0.97511777     0.27000
H800        H  0.32559706  0.12408671  0.96870515     0.15900
C801        C  0.58774720  0.10577581  0.98215872    -0.11400
C802        C  0.61382435  0.08456742  0.98086822     0.15100
C803        C  0.60828004  0.05173414  0.97375831     0.02000
C804        C  0.57702953  0.04132379  0.96645301    -0.15800
C805        C  0.55094291  0.06284030  0.96651610    -0.10600
C806        C  0.55640350  0.09534273  0.97568500     0.08700
C807        C  0.64628053  0.09824690  0.98656614     0.09800
S808        S  0.63988155  0.02201065  0.97365509    -0.24900
H809        H  0.57308519  0.01623228  0.96038106     0.20000
S810        S  0.52394088  0.12353168  0.98189935    -0.30600
H811        H  0.59212388  0.13070926  0.98854768     0.10300
C812        C  0.66800180  0.10355004  0.96132384     0.03600
C813        C  0.69639469  0.12096220  0.96699480    -0.12900
C814        C  0.70375546  0.13351092  0.99746652    -0.08600
C815        C  0.68256694  0.12622614  0.02312628     0.07000
C816        C  0.65399931  0.10929936  0.01721960    -0.13700
S817        S  0.65846691  0.09031644  0.92133151    -0.30600
H818        H  0.71228651  0.12587397  0.94710078     0.11200
S819        S  0.68959805  0.13836790  0.06378529    -0.27700
H820        H  0.63728372  0.10508684  0.03667091     0.08500
H821        H  0.54279899  0.15142640  0.98581599     0.26900
H822        H  0.68861719  0.09734704  0.90769435     0.21700
H823        H  0.72063236  0.12486647  0.06452683     0.27000
H824        H  0.66023736  0.03808245  0.99518835     0.15900
C825        C  0.47954585  0.16183742  0.81864291    -0.11400
C826        C  0.50383156  0.16453330  0.84174062     0.15100
C827        C  0.52926663  0.18646582  0.83688288     0.02000
C828        C  0.53057553  0.20423047  0.80866311    -0.15800
C829        C  0.50671920  0.20117590  0.78508959    -0.10600
C830        C  0.48074675  0.17978459  0.79036876     0.08700
C831        C  0.50395963  0.14167046  0.86877459     0.09800
S832        S  0.56080786  0.19280077  0.86575074    -0.24900
H833        H  0.55034219  0.22095997  0.80528523     0.20000
S834        S  0.44967514  0.17263786  0.76129988    -0.30600
H835        H  0.46021868  0.14461675  0.82210251     0.10300
C836        C  0.48002632  0.14223682  0.89249109     0.03600
C837        C  0.47994979  0.11840525  0.91607974    -0.12900
C838        C  0.50303075  0.09355262  0.91636167    -0.05000
C839        C  0.52784815  0.09395187  0.89316674     0.07000
C840        C  0.52795551  0.11802310  0.86974047    -0.13700
S841        S  0.44958470  0.17325311  0.89276198    -0.30600
H842        H  0.46134977  0.11874856  0.93421165     0.11200
S843        S  0.55780748  0.06272637  0.89068776    -0.27700
H844        H  0.54609302  0.11775994  0.85114814     0.08500
H845        H  0.47069274  0.17283550  0.73491684     0.26900
H846        H  0.43083930  0.16008794  0.91748252     0.21700
H847        H  0.57819302  0.07813292  0.86862467     0.27000
H848        H  0.54214677  0.18531910  0.89278358     0.15900
C849        C  0.44100272  0.99137543  0.35548178    -0.11400
C850        C  0.43142373  0.97131394  0.38070002     0.15100
C851        C  0.40268842  0.95324441  0.37774713     0.02000
C852        C  0.38505168  0.95466170  0.34933596    -0.15800
C853        C  0.39449110  0.97491447  0.32417527    -0.10600
C854        C  0.42298189  0.99329605  0.32731947     0.08700
C855        C  0.45135997  0.97033967  0.41005160     0.09800
S856        S  0.38641968  0.92903921  0.40973364    -0.24900
H857        H  0.36294303  0.94090974  0.34740738     0.20000
S858        S  0.43815356  0.01885296  0.29594789    -0.30600
H859        H  0.46289824  0.00541391  0.35765554     0.10300
C860        C  0.46797146  0.94234794  0.41936418     0.03600
C861        C  0.48293056  0.94143159  0.44931786    -0.12900
C862        C  0.48105927  0.96758972  0.47066255    -0.08600
C863        C  0.46729363  0.99677506  0.45975116     0.07000
C864        C  0.45251251  0.99770557  0.42965468    -0.13700
S865        S  0.46948819  0.90751422  0.39346608    -0.30600
H866        H  0.49497061  0.91969067  0.45663081     0.11200
S867        S  0.46680703  0.03268253  0.48413244    -0.27700
H868        H  0.44049422  0.01941960  0.42182483     0.08500
H869        H  0.42768717  0.99903980  0.27072767     0.26900
H870        H  0.48546279  0.88694565  0.41483990     0.21700
H871        H  0.44993565  0.05257650  0.46283950     0.27000
H872        H  0.39907656  0.94733501  0.43503679     0.15900
C873        C  0.44858199  0.85391596  0.49956133    -0.11400
C874        C  0.41516713  0.85714392  0.49846260     0.15100
C875        C  0.40116921  0.88798756  0.50145427     0.02000
C876        C  0.42097349  0.91471816  0.50670453    -0.15800
C877        C  0.45433042  0.91130721  0.50960913    -0.10600
C878        C  0.46836475  0.88052642  0.50493904     0.08700
C879        C  0.39574878  0.82759009  0.49566925     0.09800
S880        S  0.35832672  0.89476545  0.50019354    -0.24900
H881        H  0.41007308  0.93804610  0.51004573     0.20000
S882        S  0.51102510  0.87268935  0.50566972    -0.30600
H883        H  0.45929693  0.83025634  0.49676451     0.10300
C884        C  0.38037058  0.81917014  0.46704542     0.03600
C885        C  0.36104414  0.79154796  0.46615129    -0.12900
C886        C  0.35716025  0.77182657  0.49323141    -0.08600
C887        C  0.37449088  0.77938865  0.52130016     0.07000
C888        C  0.39316025  0.80740156  0.52231194    -0.13700
S889        S  0.38549114  0.84351730  0.43171358    -0.30600
H890        H  0.34825602  0.78580892  0.44440377     0.11200
S891        S  0.37476387  0.75407045  0.55619850    -0.27700
H892        H  0.40589283  0.81353575  0.54404235     0.08500
H893        H  0.52135039  0.90455429  0.50399459     0.26900
H894        H  0.36405782  0.82625550  0.41215078     0.21700
H895        H  0.37575118  0.72502753  0.53878418     0.27000
H896        H  0.34900714  0.86468796  0.51251321     0.15900
C897        C  0.38212115  0.98850412  0.59361412    -0.11400
C898        C  0.38409401  0.97904371  0.62559555     0.15100
C899        C  0.41411765  0.97038565  0.63847430     0.02000
C900        C  0.44153075  0.97189116  0.61927553    -0.15800
C901        C  0.44005744  0.98207484  0.58742670    -0.10600
C902        C  0.40966204  0.98954769  0.57422589     0.08700
C903        C  0.35471278  0.97980876  0.64535808     0.09800
S904        S  0.41909230  0.95666687  0.67901832    -0.24900
H905        H  0.46379797  0.96339600  0.62906869     0.20000
S906        S  0.40558795  0.99993120  0.53259320    -0.30600
H907        H  0.35889222  0.99494375  0.58391788     0.10300
C908        C  0.34899407  0.00554521  0.66643784     0.03600
C909        C  0.32141980  0.00513403  0.68558931    -0.12900
C910        C  0.29912655  0.97958605  0.68403805    -0.08600
C911        C  0.30458240  0.95417855  0.66209789     0.07000
C912        C  0.33243556  0.95447364  0.64317456    -0.13700
S913        S  0.37687659  0.03895720  0.66887100    -0.30600
H914        H  0.31753707  0.02465630  0.70233627     0.11200
S915        S  0.27664149  0.92146762  0.65622810    -0.27700
H916        H  0.33678492  0.93488885  0.62656161     0.08500
H917        H  0.37190832  0.00300945  0.53238103     0.26900
H918        H  0.36022140  0.05652041  0.69241097     0.21700
H919        H  0.24902021  0.94089682  0.65876501     0.27000
H920        H  0.38827034  0.94320421  0.68257656     0.15900
C921        C  0.49041123  0.15388454  0.60163697    -0.11400
C922        C  0.50269994  0.12471661  0.61330055     0.15100
C923        C  0.52108329  0.12498123  0.64168724     0.02000
C924        C  0.52669557  0.15413110  0.65759587    -0.15800
C925        C  0.51348687  0.18308402  0.64652235    -0.10600
C926        C  0.49553837  0.18294744  0.61793624     0.08700
C927        C  0.49792773  0.09469829  0.59449546     0.09800
S928        S  0.53700229  0.08882915  0.65957616    -0.24900
H929        H  0.54014747  0.15394738  0.67972146     0.20000
S930        S  0.47959938  0.21920979  0.60052849    -0.30600
H931        H  0.47706155  0.15404815  0.57946026     0.10300
C932        C  0.46734192  0.08121661  0.58922707     0.03600
C933        C  0.46473666  0.05167995  0.57301519    -0.12900
C934        C  0.49196212  0.03381979  0.56349947    -0.08600
C935        C  0.52274621  0.04840568  0.56817847     0.07000
C936        C  0.52501246  0.07876786  0.58271052    -0.13700
S937        S  0.43159375  0.10055863  0.60463078    -0.30600
H938        H  0.44113320  0.04261339  0.56826564     0.11200
S939        S  0.56033045  0.02934370  0.55785857    -0.27700
H940        H  0.54837611  0.08984413  0.58607795     0.08500
H941        H  0.50515864  0.23897727  0.61064024     0.26900
H942        H  0.40998885  0.07537787  0.59765292     0.21700
H943        H  0.57995706  0.04663454  0.57921094     0.27000
H944        H  0.51199050  0.06833321  0.64956146     0.15900
C945        C  0.40064092  0.61194424  0.52796650    -0.11400
C946        C  0.41346472  0.59686190  0.50096775     0.15100
C947        C  0.39728110  0.59932468  0.47155050     0.02000
C948        C  0.36944215  0.61827096  0.46956222    -0.15800
C949        C  0.35688324  0.63436482  0.49650104    -0.10600
C950        C  0.37273455  0.63059433  0.52634131     0.08700
C951        C  0.44459358  0.58024361  0.50502542     0.09800
S952        S  0.41106578  0.57933068  0.43577813    -0.24900
H953        H  0.35766582  0.62063114  0.44665650     0.20000
S954        S  0.35965384  0.65066191  0.56257442    -0.30600
H955        H  0.41339210  0.60982301  0.55037047     0.10300
C956        C  0.47363634  0.59413412  0.49438460     0.03600
C957        C  0.50288392  0.58109800  0.50470315    -0.12900
C958        C  0.50365859  0.55586258  0.52702246    -0.08600
C959        C  0.47464678  0.54003689  0.53490817     0.07000
C960        C  0.44546120  0.55276766  0.52437811    -0.13700
S961        S  0.47358934  0.63018910  0.47029479    -0.30600
H962        H  0.52525351  0.59203123  0.49718375     0.11200
S963        S  0.47281554  0.50369443  0.55792006    -0.27700
H964        H  0.42310530  0.54172530  0.53206356     0.08500
H965        H  0.38216107  0.63700592  0.58357140     0.26900
H966        H  0.50714152  0.63457841  0.46929153     0.21700
H967        H  0.50020508  0.49012112  0.54363763     0.27000
H968        H  0.42810182  0.55457248  0.45107992     0.15900
C969        C  0.62545363  0.51322269  0.43056223    -0.11400
C970        C  0.61175171  0.53084337  0.40567291     0.15100
C971        C  0.58459488  0.55038729  0.41190121     0.02000
C972        C  0.57336763  0.55375340  0.44335861    -0.15800
C973        C  0.58833271  0.53742014  0.46851347    -0.10600
C974        C  0.61417667  0.51632003  0.46185464     0.08700
C975        C  0.62909538  0.53073427  0.37473828     0.09800
S976        S  0.56402116  0.57228617  0.38098932    -0.24900
H977        H  0.55348049  0.56984781  0.44834864     0.20000
S978        S  0.63544052  0.49595724  0.49341037    -0.30600
H979        H  0.64625122  0.49832296  0.42559851     0.10300
C980        C  0.64842082  0.55703552  0.36553710     0.03600
C981        C  0.66839038  0.55423110  0.33864469    -0.12900
C982        C  0.67015216  0.52539666  0.32083809    -0.08600
C983        C  0.64984189  0.49934791  0.32983521     0.07000
C984        C  0.62993399  0.50228048  0.35671088    -0.13700
S985        S  0.64953119  0.59336261  0.38945139    -0.30600
H986        H  0.68378317  0.57430040  0.33235184     0.11200
S987        S  0.64806234  0.46152210  0.30874452    -0.27700
H988        H  0.61531816  0.48192842  0.36405099     0.08500
H989        H  0.65997906  0.48241312  0.47454174     0.26900
H990        H  0.67248315  0.61003934  0.37109120     0.21700
H991        H  0.64792568  0.47589764  0.27853800     0.27000
H992        H  0.57337497  0.55202985  0.35569033     0.15900
C993        C  0.54207861  0.43931267  0.59651219    -0.11400
C994        C  0.55474647  0.41223719  0.58113811     0.15100
C995        C  0.57392263  0.41628750  0.55357929     0.02000
C996        C  0.58132865  0.44749686  0.54303062    -0.15800
C997        C  0.57003647  0.47474499  0.55944192    -0.10600
C998        C  0.54918975  0.47042637  0.58594207     0.08700
C999        C  0.54960487  0.38072546  0.59673552     0.09800
S1000       S  0.58990553  0.38274934  0.53119096    -0.24900
H1001       H  0.59599061  0.45037231  0.52193368     0.20000
S1002       S  0.53338744  0.50417528  0.60840352    -0.30600
H1003       H  0.52750109  0.43594261  0.61770657     0.10300
C1004       C  0.57394655  0.36664223  0.61527626     0.03600
C1005       C  0.56665865  0.33979718  0.63419498    -0.12900
C1006       C  0.53528149  0.32687534  0.63559650    -0.08600
C1007       C  0.51133922  0.34028859  0.61555595     0.07000
C1008       C  0.51869810  0.36721700  0.59678005    -0.13700
S1009       S  0.61360916  0.38454780  0.61699761    -0.30600
H1010       H  0.58528100  0.32994809  0.64927693     0.11200
S1011       S  0.47095980  0.32477294  0.61279408    -0.27700
H1012       H  0.49997715  0.37822297  0.58253922     0.08500
H1013       H  0.51255318  0.48658128  0.62833486     0.26900
H1014       H  0.62730140  0.36202055  0.63797591     0.21700
H1015       H  0.48067430  0.29237067  0.61245482     0.27000
H1016       H  0.56650729  0.36017372  0.54059038     0.15900
C1017       C  0.63507474  0.36545943  0.00819665    -0.11400
C1018       C  0.66560147  0.36588970  0.99411517     0.15100
C1019       C  0.67655452  0.39418601  0.97898215     0.02000
C1020       C  0.65611560  0.42089000  0.97696294    -0.15800
C1021       C  0.62514530  0.42050055  0.99040876    -0.10600
C1022       C  0.61469479  0.39226111  0.00637434     0.08700
C1023       C  0.68469372  0.33587582  0.99456765     0.09800
S1024       S  0.71562595  0.39726785  0.96038735    -0.24900
H1025       H  0.66431758  0.44167144  0.96394412     0.20000
S1026       S  0.57578290  0.39038718  0.02543935    -0.30600
H1027       H  0.62706960  0.34374463  0.02013684     0.10300
C1028       C  0.70403757  0.32810755  0.02086179     0.03600
C1029       C  0.72090091  0.29893748  0.02089151    -0.12900
C1030       C  0.71880511  0.27707709  0.99517865    -0.08600
C1031       C  0.69904524  0.28484532  0.96889144     0.07000
C1032       C  0.68224210  0.31425083  0.96889834    -0.13700
S1033       S  0.70755446  0.35564641  0.05415785    -0.30600
H1034       H  0.73619509  0.29333829  0.04099178     0.11200
S1035       S  0.69368469  0.25701330  0.93610985    -0.27700
H1036       H  0.66678777  0.32038717  0.94906945     0.08500
H1037       H  0.57698565  0.35776886  0.03442756     0.26900
H1038       H  0.73030236  0.33775028  0.07145217     0.21700
H1039       H  0.67261854  0.27626145  0.91815658     0.27000
H1040       H  0.73135645  0.37490429  0.98000264     0.15900
C1041       C  0.49522913  0.36150256  0.82043329    -0.11400
C1042       C  0.52529774  0.36869809  0.83353361     0.15100
C1043       C  0.55342593  0.35868278  0.81758592     0.02000
C1044       C  0.55092567  0.34014469  0.78984997    -0.15800
C1045       C  0.52083686  0.33153242  0.77703001    -0.10600
C1046       C  0.49248776  0.34325230  0.79230104     0.08700
C1047       C  0.52687987  0.38547464  0.86459719     0.09800
S1048       S  0.59326929  0.36811290  0.83192247    -0.24900
H1049       H  0.57290306  0.33191958  0.77854902     0.20000
S1050       S  0.45250351  0.33486262  0.77737355    -0.30600
H1051       H  0.47386613  0.36977785  0.83278765     0.10300
C1052       C  0.52148079  0.41883350  0.86709145     0.03600
C1053       C  0.52826858  0.43451225  0.89592642    -0.12900
C1054       C  0.53908348  0.41742765  0.92270205    -0.08600
C1055       C  0.54179228  0.38363955  0.92070187     0.07000
C1056       C  0.53608221  0.36801427  0.89166246    -0.13700
S1057       S  0.50827314  0.44176135  0.83298753    -0.30600
H1058       H  0.52632800  0.46045048  0.89737850     0.11200
S1059       S  0.55250974  0.35940354  0.95429166    -0.27700
H1060       H  0.53946342  0.34216435  0.88992664     0.08500
H1061       H  0.43504068  0.34906649  0.80250942     0.26900
H1062       H  0.50311474  0.47091841  0.84943534     0.21700
H1063       H  0.53253544  0.37712752  0.97502518     0.27000
H1064       H  0.58534615  0.39799803  0.84572963     0.15900
C1065       C  0.60952198  0.52395666  0.07238257    -0.11400
C1066       C  0.62821347  0.50309992  0.09053444     0.15100
C1067       C  0.63209885  0.47112401  0.08026532     0.02000
C1068       C  0.61683097  0.46060700  0.05253280    -0.15800
C1069       C  0.59903329  0.48135644  0.03260718    -0.10600
C1070       C  0.59547320  0.51411551  0.04345128     0.08700
C1071       C  0.64240916  0.51466206  0.12083447     0.09800
S1072       S  0.65679946  0.44239345  0.10126743    -0.24900
H1073       H  0.61957463  0.43567113  0.04722689     0.20000
S1074       S  0.57427241  0.54524394  0.02198310    -0.30600
H1075       H  0.60620571  0.54834250  0.08104811     0.10300
C1076       C  0.66842725  0.53655260  0.12137815     0.03600
C1077       C  0.68457759  0.54234052  0.15025585    -0.12900
C1078       C  0.67512894  0.52657968  0.17837027    -0.08600
C1079       C  0.64708787  0.50733192  0.17817324     0.07000
C1080       C  0.63119112  0.50139363  0.14946886    -0.13700
S1081       S  0.68290642  0.55474524  0.08494671    -0.30600
H1082       H  0.70604153  0.55716112  0.15044694     0.11200
S1083       S  0.63083410  0.48919670  0.21370127    -0.27700
H1084       H  0.61058782  0.48534673  0.14921822     0.08500
H1085       H  0.58585472  0.57219686  0.03884750     0.26900
H1086       H  0.70643317  0.57447528  0.09914520     0.21700
H1087       H  0.64176034  0.51369009  0.23430359     0.27000
H1088       H  0.67986850  0.46483974  0.11175668     0.15900
C1089       C  0.46529831  0.42784679  0.01848478    -0.11400
C1090       C  0.44281695  0.42218926  0.99436529     0.15100
C1091       C  0.44878940  0.43416966  0.96342409     0.02000
C1092       C  0.47877079  0.44768013  0.95639681    -0.15800
C1093       C  0.50305714  0.44949634  0.97952855    -0.10600
C1094       C  0.49514998  0.44197784  0.01157625     0.08700
C1095       C  0.41528431  0.40076084  0.00137876     0.09800
S1096       S  0.41980191  0.43147956  0.93155696    -0.24900
H1097       H  0.48312315  0.45634615  0.93255393     0.20000
S1098       S  0.52275280  0.44930498  0.04394750    -0.30600
H1099       H  0.45997671  0.41968259  0.04245074     0.10300
C1100       C  0.41370736  0.36963953  0.98793611     0.03600
C1101       C  0.38680670  0.35035762  0.99399614    -0.12900
C1102       C  0.36186311  0.36102265  0.01397872    -0.08600
C1103       C  0.36415531  0.39159372  0.02873704     0.07000
C1104       C  0.39099098  0.41109178  0.02234794    -0.13700
S1105       S  0.44625920  0.35411968  0.96363384    -0.30600
H1106       H  0.38503615  0.32679392  0.98298259     0.11200
S1107       S  0.33356599  0.40772776  0.05488544    -0.27700
H1108       H  0.39261508  0.43478912  0.03316758     0.08500
H1109       H  0.50310175  0.43777284  0.06880108     0.26900
H1110       H  0.43324959  0.32320541  0.95857762     0.21700
H1111       H  0.30758219  0.38960823  0.04330420     0.27000
H1112       H  0.39241129  0.43006214  0.95124808     0.15900
C1113       C  0.89188831  0.91246528  0.50183009    -0.11400
C1114       C  0.91160256  0.90869574  0.47488332     0.15100
C1115       C  0.90138028  0.88856150  0.44973182     0.02000
C1116       C  0.87264148  0.87136741  0.45273303    -0.15800
C1117       C  0.85332468  0.87380184  0.48027193    -0.10600
C1118       C  0.86266893  0.89567324  0.50459905     0.08700
C1119       C  0.94437015  0.92258695  0.47492048     0.09800
S1120       S  0.92496259  0.88216830  0.41401346    -0.24900
H1121       H  0.86604101  0.85491459  0.43372045     0.20000
S1122       S  0.83854478  0.90347275  0.53952917    -0.30600
H1123       H  0.89962575  0.92812590  0.52107741     0.10300
C1124       C  0.95059853  0.95452259  0.46526688     0.03600
C1125       C  0.98260777  0.96470276  0.46114746    -0.12900
C1126       C  0.00819530  0.94327465  0.46606988    -0.08600
C1127       C  0.00188138  0.91231070  0.47854377     0.07000
C1128       C  0.97001515  0.90216738  0.48244432    -0.13700
S1129       S  0.91782830  0.98141116  0.45616370    -0.30600
H1130       H  0.98770731  0.98868655  0.45229879     0.11200
S1131       S  0.03427338  0.88593167  0.49036087    -0.27700
H1132       H  0.96489440  0.87795477  0.49065079     0.08500
H1133       H  0.80905042  0.90218056  0.52315354     0.26900
H1134       H  0.93692108  0.00826119  0.44819943     0.21700
H1135       H  0.01504794  0.85955789  0.49943121     0.27000
H1136       H  0.93938024  0.91280877  0.41339922     0.15900
C1137       C  0.64897975  0.87934190  0.48164218    -0.11400
C1138       C  0.65257889  0.90990105  0.49569307     0.15100
C1139       C  0.68390675  0.92133445  0.50250099     0.02000
C1140       C  0.71041863  0.90110098  0.49759693    -0.15800
C1141       C  0.70656716  0.87002303  0.48493452    -0.10600
C1142       C  0.67554208  0.85936460  0.47620688     0.08700
C1143       C  0.62327146  0.92667220  0.50754078     0.09800
S1144       S  0.69152276  0.96117339  0.51811562    -0.24900
H1145       H  0.73421325  0.90945539  0.50420090     0.20000
S1146       S  0.66797100  0.81953439  0.46066443    -0.30600
H1147       H  0.62508305  0.87012579  0.47674976     0.10300
C1148       C  0.59786441  0.93543828  0.48724884     0.03600
C1149       C  0.56928269  0.94754363  0.50047912    -0.12900
C1150       C  0.56509833  0.95115215  0.53373159    -0.08600
C1151       C  0.59201126  0.94519399  0.55359870     0.07000
C1152       C  0.62014678  0.93208106  0.54039251    -0.13700
S1153       S  0.60178599  0.93141963  0.44447658    -0.30600
H1154       H  0.54969170  0.95320430  0.48460953     0.11200
S1155       S  0.59297025  0.95674839  0.59493711    -0.27700
H1156       H  0.64000478  0.92576269  0.55581258     0.08500
H1157       H  0.68873799  0.80386798  0.48196555     0.26900
H1158       H  0.57064336  0.94195006  0.43663444     0.21700
H1159       H  0.62570270  0.95056691  0.60065766     0.27000
H1160       H  0.66386180  0.97547101  0.50510180     0.15900
C1161       C  0.70002560  0.67830378  0.51217478    -0.11400
C1162       C  0.67727196  0.67486652  0.48779475     0.15100
C1163       C  0.67490603  0.69870313  0.46401724     0.02000
C1164       C  0.69505376  0.72571146  0.46541572    -0.15800
C1165       C  0.71778671  0.72940163  0.48996476    -0.10600
C1166       C  0.72060953  0.70495200  0.51325872     0.08700
C1167       C  0.65423274  0.64792714  0.49009893     0.09800
S1168       S  0.64638232  0.69631337  0.43172072    -0.24900
H1169       H  0.69292436  0.74404702  0.44716019     0.20000
S1170       S  0.75082556  0.70542556  0.54401381    -0.30600
H1171       H  0.70176966  0.65997332  0.53049115     0.10300
C1172       C  0.66222280  0.61641322  0.48059247     0.03600
C1173       C  0.64091229  0.59106229  0.48746318    -0.12900
C1174       C  0.61274179  0.59638468  0.50541076    -0.08600
C1175       C  0.60372003  0.62858298  0.51219015     0.07000
C1176       C  0.62459944  0.65388277  0.50457813    -0.13700
S1177       S  0.70026191  0.60836805  0.46131403    -0.30600
H1178       H  0.64780621  0.56680509  0.48131233     0.11200
S1179       S  0.56537790  0.63830602  0.52964869    -0.27700
H1180       H  0.61845037  0.67843133  0.51095720     0.08500
H1181       H  0.77575311  0.71558727  0.52358593     0.26900
H1182       H  0.69557209  0.57503440  0.45707373     0.21700
H1183       H  0.56820950  0.67207257  0.52855313     0.27000
H1184       H  0.64408720  0.66252153  0.43083204     0.15900
C1185       C  0.89007184  0.70303823  0.52142395    -0.11400
C1186       C  0.88650225  0.67734052  0.49998490     0.15100
C1187       C  0.86462971  0.68013530  0.47441462     0.02000
C1188       C  0.84664703  0.70835578  0.47100872    -0.15800
C1189       C  0.84974860  0.73401059  0.49267697    -0.10600
C1190       C  0.87227451  0.73143684  0.51785355     0.08700
C1191       C  0.90902774  0.64993589  0.50186540     0.09800
S1192       S  0.85934197  0.64905444  0.44466258    -0.24900
H1193       H  0.82940526  0.70988860  0.45171918     0.20000
S1194       S  0.88080012  0.76405298  0.54507881    -0.30600
H1195       H  0.90772220  0.70139609  0.54033919     0.10300
C1196       C  0.93777281  0.65058938  0.48437466     0.03600
C1197       C  0.95630782  0.62271884  0.48232230    -0.12900
C1198       C  0.94703300  0.59368371  0.49706767    -0.08600
C1199       C  0.91885072  0.59369487  0.51632060     0.07000
C1200       C  0.90049830  0.62204648  0.51878579    -0.13700
S1201       S  0.94995195  0.68644881  0.46299103    -0.30600
H1202       H  0.97736809  0.62319185  0.46741783     0.11200
S1203       S  0.90314872  0.55907413  0.53701087    -0.27700
H1204       H  0.87833544  0.62183950  0.53245843     0.08500
H1205       H  0.87656288  0.78861031  0.52234985     0.26900
H1206       H  0.97864247  0.67405332  0.45004549     0.21700
H1207       H  0.92394417  0.53618284  0.52423538     0.27000
H1208       H  0.86547788  0.62274719  0.46473199     0.15900
C1209       C  0.51780973  0.92214263  0.91278756    -0.11400
C1210       C  0.49803138  0.89945543  0.92790950     0.15100
C1211       C  0.47832110  0.90934564  0.95367519     0.02000
C1212       C  0.47666823  0.94218291  0.96159553    -0.15800
C1213       C  0.49431023  0.96514684  0.94430334    -0.10600
C1214       C  0.51628625  0.95480348  0.92086871     0.08700
C1215       C  0.49620497  0.86705772  0.91311375     0.09800
S1216       S  0.45388016  0.88162250  0.97632174    -0.24900
H1217       H  0.46056918  0.95002911  0.98044698     0.20000
S1218       S  0.54180900  0.98315023  0.90045151    -0.30600
H1219       H  0.53325741  0.91439003  0.89339173     0.10300
C1220       C  0.46954579  0.85818468  0.89433532     0.03600
C1221       C  0.47162134  0.83092758  0.87463637    -0.12900
C1222       C  0.49996850  0.81242865  0.87280031    -0.08600
C1223       C  0.52565591  0.82001653  0.89365891     0.07000
C1224       C  0.52366546  0.84745157  0.91312442    -0.13700
S1225       S  0.43412595  0.88341759  0.89267126    -0.30600
H1226       H  0.45170616  0.82536921  0.85897384     0.11200
S1227       S  0.56165199  0.79607694  0.89651288    -0.27700
H1228       H  0.54411034  0.85420049  0.92769111     0.08500
H1229       H  0.56017870  0.96044443  0.88338237     0.26900
H1230       H  0.41528623  0.86258846  0.87387788     0.21700
H1231       H  0.54551967  0.76639955  0.89317692     0.27000
H1232       H  0.47164575  0.85379701  0.96885094     0.15900
C1233       C  0.56886357  0.58774313  0.92382827    -0.11400
C1234       C  0.53693626  0.58907332  0.91314311     0.15100
C1235       C  0.51640963  0.56256417  0.91863914     0.02000
C1236       C  0.52855446  0.53492147  0.93329250    -0.15800
C1237       C  0.56092512  0.53281942  0.94254674    -0.10600
C1238       C  0.58105624  0.56012248  0.93872871     0.08700
C1239       C  0.52665808  0.61705031  0.89375418     0.09800
S1240       S  0.47486266  0.56202941  0.90639282    -0.24900
H1241       H  0.51283872  0.51427698  0.93630470     0.20000
S1242       S  0.62199966  0.56218635  0.95265718    -0.30600
H1243       H  0.58458880  0.60823906  0.91996103     0.10300
C1244       C  0.52082451  0.64757025  0.90745652     0.03600
C1245       C  0.51253665  0.67358979  0.88765280    -0.12900
C1246       C  0.51006196  0.66958042  0.85447297    -0.08600
C1247       C  0.51557919  0.63888543  0.84093184     0.07000
C1248       C  0.52374217  0.61301471  0.86066626    -0.13700
S1249       S  0.52428374  0.65334759  0.95002865    -0.30600
H1250       H  0.50902021  0.69735184  0.89782685     0.11200
S1251       S  0.51445570  0.63165772  0.79848220    -0.27700
H1252       H  0.52848996  0.58962098  0.85009253     0.08500
H1253       H  0.62030193  0.53594264  0.97360194     0.26900
H1254       H  0.51782827  0.68662898  0.95015522     0.21700
H1255       H  0.49121485  0.65517213  0.79161557     0.27000
H1256       H  0.46986305  0.59543996  0.90902091     0.15900
C1257       C  0.48537202  0.86224304  0.69328419    -0.11400
C1258       C  0.51612968  0.86775105  0.68047137     0.15100
C1259       C  0.54301253  0.85358799  0.69505133     0.02000
C1260       C  0.53854033  0.83276632  0.72077695    -0.15800
C1261       C  0.50767844  0.82573781  0.73309892    -0.10600
C1262       C  0.48086693  0.84184836  0.71967041     0.08700
C1263       C  0.51940085  0.88609674  0.65040571     0.09800
S1264       S  0.58356223  0.85954417  0.68072063    -0.24900
H1265       H  0.55966578  0.82120449  0.73054620     0.20000
S1266       S  0.44049282  0.83762293  0.73473613    -0.30600
H1267       H  0.46468343  0.87354646  0.68231802     0.10300
C1268       C  0.52033499  0.87014723  0.62073770     0.03600
C1269       C  0.52260918  0.88824119  0.59261152    -0.12900
C1270       C  0.52387361  0.92198792  0.59339959    -0.08600
C1271       C  0.52397054  0.93791472  0.62340998     0.07000
C1272       C  0.52180112  0.91973990  0.65154907    -0.13700
S1273       S  0.51666902  0.82678314  0.61867111    -0.30600
H1274       H  0.52140136  0.87612734  0.56990639     0.11200
S1275       S  0.52540830  0.98154552  0.62616874    -0.27700
H1276       H  0.52135551  0.93167423  0.67454538     0.08500
H1277       H  0.44973064  0.84042054  0.76691587     0.26900
H1278       H  0.51694288  0.82425803  0.58519011     0.21700
H1279       H  0.52487388  0.98369108  0.65965668     0.27000
H1280       H  0.57913363  0.89114479  0.66960850     0.15900
C1281       C  0.52619049  0.68386859  0.66108271    -0.11400
C1282       C  0.50672228  0.65634024  0.65872349     0.15100
C1283       C  0.48586303  0.64844453  0.68416277     0.02000
C1284       C  0.48591877  0.66744319  0.71183562    -0.15800
C1285       C  0.50662389  0.69407532  0.71485676    -0.10600
C1286       C  0.52613686  0.70295816  0.68862882     0.08700
C1287       C  0.51504108  0.63255610  0.63377405     0.09800
S1288       S  0.46040101  0.61320093  0.68366362    -0.24900
H1289       H  0.47041368  0.66075580  0.73157758     0.20000
S1290       S  0.55129732  0.73839007  0.68867351    -0.30600
H1291       H  0.54254013  0.68977244  0.64175656     0.10300
C1292       C  0.50108039  0.63195553  0.60330860     0.03600
C1293       C  0.51269678  0.61002410  0.58031840    -0.12900
C1294       C  0.53874010  0.58910657  0.58671762    -0.08600
C1295       C  0.55205145  0.59010098  0.61806151     0.07000
C1296       C  0.53992331  0.61147418  0.64079468    -0.13700
S1297       S  0.46906856  0.65956625  0.59357978    -0.30600
H1298       H  0.50238921  0.61094646  0.55696573     0.11200
S1299       S  0.58486555  0.56520777  0.63099164    -0.27700
H1300       H  0.55068054  0.61265347  0.66429941     0.08500
H1301       H  0.52889183  0.75786166  0.70484934     0.26900
H1302       H  0.46405060  0.64865968  0.56216251     0.21700
H1303       H  0.58001197  0.56812869  0.66410829     0.27000
H1304       H  0.45775071  0.61081076  0.65034197     0.15900
C1305       C  0.90902534  0.46931599  0.87523616    -0.11400
C1306       C  0.93988398  0.48284581  0.87486885     0.15100
C1307       C  0.94965062  0.50212712  0.84880144     0.02000
C1308       C  0.92810697  0.50748229  0.82368987    -0.15800
C1309       C  0.89746451  0.49332533  0.82394558    -0.10600
C1310       C  0.88766305  0.47443587  0.85016762     0.08700
C1311       C  0.95971813  0.47774736  0.90349599     0.09800
S1312       S  0.98902340  0.52027281  0.84606092    -0.24900
H1313       H  0.93555430  0.52197915  0.80348770     0.20000
S1314       S  0.84736152  0.45802621  0.85256397    -0.30600
H1315       H  0.90155113  0.45510900  0.89560752     0.10300
C1316       C  0.96273171  0.50209255  0.92667723     0.03600
C1317       C  0.97532448  0.49431258  0.95651517    -0.12900
C1318       C  0.98335391  0.46239371  0.96433153    -0.08600
C1319       C  0.98267639  0.43846862  0.94030165     0.07000
C1320       C  0.97075900  0.44649258  0.91005263    -0.13700
S1321       S  0.94732780  0.54218471  0.91963411    -0.30600
H1322       H  0.97656979  0.51281016  0.97467109     0.11200
S1323       S  0.99652445  0.39791611  0.94770636    -0.27700
H1324       H  0.96839508  0.42806020  0.89187396     0.08500
H1325       H  0.85013452  0.44437186  0.88312875     0.26900
H1326       H  0.95606026  0.55552291  0.94927194     0.21700
H1327       H  0.99136990  0.38586038  0.91674626     0.27000
H1328       H  0.00479928  0.49863446  0.86645139     0.15900
C1329       C  0.90785538  0.52851281  0.62567564    -0.11400
C1330       C  0.94059458  0.52130361  0.62875403     0.15100
C1331       C  0.95186734  0.50722872  0.65729148     0.02000
C1332       C  0.92999681  0.50071610  0.68207553    -0.15800
C1333       C  0.89727488  0.50831550  0.67888532    -0.10600
C1334       C  0.88613827  0.52192502  0.65018662     0.08700
C1335       C  0.96109440  0.52662495  0.60039426     0.09800
S1336       S  0.99356957  0.49720772  0.66351533    -0.24900
H1337       H  0.93865287  0.49052036  0.70423187     0.20000
S1338       S  0.84429772  0.53086540  0.64326936    -0.30600
H1339       H  0.89898497  0.53872679  0.60365144     0.10300
C1340       C  0.96644424  0.50153191  0.57840148     0.03600
C1341       C  0.97830522  0.50892177  0.54802193    -0.12900
C1342       C  0.98454921  0.54096543  0.53902743    -0.08600
C1343       C  0.98308096  0.56546662  0.56243400     0.07000
C1344       C  0.97064130  0.55815590  0.59269913    -0.13700
S1345       S  0.95502988  0.46058651  0.58778569    -0.30600
H1346       H  0.97988584  0.48996696  0.53029711     0.11200
S1347       S  0.99650346  0.60614894  0.55533470    -0.27700
H1348       H  0.96721500  0.57734322  0.60995706     0.08500
H1349       H  0.83259519  0.50375789  0.65971071     0.26900
H1350       H  0.96742868  0.44631632  0.55986440     0.21700
H1351       H  0.01568045  0.59872358  0.52871306     0.27000
H1352       H  0.00646550  0.51963671  0.64188792     0.15900
C1353       C  0.72200805  0.52227834  0.85628466    -0.11400
C1354       C  0.70171301  0.49532167  0.85514675     0.15100
C1355       C  0.71017902  0.46885219  0.83566361     0.02000
C1356       C  0.73834200  0.47021697  0.81736710    -0.15800
C1357       C  0.75900050  0.49708984  0.81863134    -0.10600
C1358       C  0.75080881  0.52316185  0.83904511     0.08700
C1359       C  0.67260062  0.49508219  0.87552353     0.09800
S1360       S  0.68621529  0.43262256  0.83316600    -0.24900
H1361       H  0.74396288  0.45009927  0.80180082     0.20000
S1362       S  0.77634524  0.55771664  0.84546543    -0.30600
H1363       H  0.71574134  0.54247978  0.87152623     0.10300
C1364       C  0.67516741  0.49450070  0.90899529     0.03600
C1365       C  0.64722683  0.49273775  0.92748635    -0.12900
C1366       C  0.61667499  0.49073587  0.91355102    -0.08600
C1367       C  0.61409560  0.49236037  0.87998842     0.07000
C1368       C  0.64205552  0.49468031  0.86136427    -0.13700
S1369       S  0.71402328  0.49343099  0.92825035    -0.30600
H1370       H  0.64915371  0.49180270  0.95318122     0.11200
S1371       S  0.57643413  0.49067044  0.85923520    -0.27700
H1372       H  0.64007681  0.49546779  0.83559510     0.08500
H1373       H  0.80483814  0.53948570  0.84699940     0.26900
H1374       H  0.70268512  0.49286879  0.95989865     0.21700
H1375       H  0.55858276  0.50542824  0.88347099     0.27000
H1376       H  0.67539666  0.43315602  0.86498079     0.15900
C1377       C  0.70251609  0.52275923  0.67758359    -0.11400
C1378       C  0.70162339  0.50213613  0.65112614     0.15100
C1379       C  0.72804946  0.48200403  0.64434945     0.02000
C1380       C  0.75520235  0.48345065  0.66380022    -0.15800
C1381       C  0.75642710  0.50446956  0.69005148    -0.10600
C1382       C  0.72940402  0.52379985  0.69740548     0.08700
C1383       C  0.67519157  0.50599987  0.62833663     0.09800
S1384       S  0.72880161  0.45470196  0.61078978    -0.24900
H1385       H  0.77561217  0.46816262  0.65830938     0.20000
S1386       S  0.72715781  0.54925643  0.73224354    -0.30600
H1387       H  0.68222298  0.53837678  0.68259066     0.10300
C1388       C  0.64445047  0.49314755  0.63360881     0.03600
C1389       C  0.61993860  0.49968753  0.61167006    -0.12900
C1390       C  0.62522227  0.51940095  0.58474311    -0.08600
C1391       C  0.65686179  0.53113338  0.57952643     0.07000
C1392       C  0.68119309  0.52442003  0.60131600    -0.13700
S1393       S  0.63633645  0.46905322  0.66855771    -0.30600
H1394       H  0.59641595  0.49095418  0.61710073     0.11200
S1395       S  0.66778463  0.55461035  0.54542220    -0.27700
H1396       H  0.70511706  0.53419564  0.59774039     0.08500
H1397       H  0.74042361  0.52610571  0.75277940     0.26900
H1398       H  0.60461104  0.46047031  0.66052176     0.21700
H1399       H  0.70125751  0.54996461  0.54700886     0.27000
H1400       H  0.69539024  0.44962541  0.60939362     0.15900
loop_ 
_geom_bond_atom_site_label_1 
_geom_bond_atom_site_label_2 
_geom_bond_distance 
_geom_bond_site_symmetry_2 
_ccdc_geom_bond_type 
O1           Cu9   2.018       .  S
O1           C11   1.278       .  A
O2           Cu9   2.007       .  S
O2           C12   1.278       .  A
O3           Cu9   1.990       .  S
O3           C13   1.275       .  A
O4           Cu9   1.995       .  S
O4           C14   1.275       .  A
O5          Cu10   2.022       .  S
O5           C14   1.279       .  A
O6          Cu10   2.018       .  S
O6           C13   1.280       .  A
O7          Cu10   1.983       .  S
O7           C12   1.274       .  A
O8          Cu10   1.979       .  S
O8           C11   1.274       .  A
Cu9         Cu10   2.375       .  S
C11        C1309   1.465       .  S
C12        C1381   1.468       .  S
C13        C1357   1.485       .  S
C14        C1333   1.469       .  S
O15         Cu23   2.026       .  S
O15          C25   1.281       .  A
O16         Cu23   2.023       .  S
O16          C26   1.280       .  A
O17         Cu23   1.990       .  S
O17          C27   1.273       .  A
O18         Cu23   1.977       .  S
O18          C28   1.274       .  A
O19         Cu24   2.044       .  S
O19          C28   1.282       .  A
O20         Cu24   2.038       .  S
O20          C27   1.281       .  A
O21         Cu24   1.996       .  S
O21          C26   1.276       .  A
O22         Cu24   1.993       .  S
O22          C25   1.274       .  A
Cu23        Cu24   2.368       .  S
C25        C1285   1.478       .  S
C26        C1222   1.489       .  S
C27        C1246   1.472       .  S
C28        C1261   1.496       .  S
O29         Cu37   2.024       .  S
O29          C39   1.281       .  A
O30         Cu37   2.023       .  S
O30          C40   1.280       .  A
O31         Cu37   1.999       .  S
O31          C41   1.275       .  A
O32         Cu37   1.990       .  S
O32          C42   1.274       .  A
O33         Cu38   2.023       .  S
O33          C42   1.281       .  A
O34         Cu38   2.025       .  S
O34          C41   1.279       .  A
O35         Cu38   1.999       .  S
O35          C40   1.277       .  A
O36         Cu38   1.987       .  S
O36          C39   1.274       .  A
Cu37        Cu38   2.371       .  S
C39        C1165   1.478       .  S
C40        C1117   1.489       .  S
C41        C1141   1.473       .  S
C42        C1189   1.479       .  S
C43          H44   1.113       .  S
C43          C49   1.537       .  S
C43          C48   1.527       .  S
C43          C47   1.533       .  S
C45          H46   1.103       .  S
C45          C51   1.541       .  S
C45          C50   1.547       .  S
C45          C52   1.557   1_556  S
C47          C50   1.374       .  D
C47        C1366   1.485       .  S
C48          C51   1.372       .  D
C48        C1054   1.487       .  S
C49          C52   1.396   1_556  D
C49        C1021   1.493       .  S
C50        C1237   1.486       .  S
C51        C1093   1.493       .  S
C52        C1069   1.531       .  S
C53          H54   1.111       .  S
C53          C59   1.540       .  S
C53          C58   1.541       .  S
C53          C57   1.538       .  S
C55          H56   1.110       .  S
C55          C61   1.543       .  S
C55          C60   1.552       .  S
C55          C62   1.550       .  S
C57          C60   1.376       .  D
C57         C997   1.489       .  S
C58          C61   1.368       .  D
C58         C973   1.483       .  S
C59          C62   1.392       .  D
C59         C958   1.486       .  S
C60        C1390   1.508       .  S
C61        C1174   1.501       .  S
C62        C1294   1.519       .  S
C63          H64   1.113       .  S
C63          C69   1.522       .  S
C63          C68   1.527       .  S
C63          C67   1.525       .  S
C65          H66   1.109   1_565  S
C65          C71   1.563       .  S
C65          C70   1.559       .  S
C65          C72   1.552       .  S
C67          C70   1.386       .  D
C67         C901   1.487       .  S
C68          C71   1.381       .  D
C68        C1270   1.483       .  S
C69          C72   1.370       .  D
C69         C877   1.480       .  S
C70         C934   1.517   1_565  S
C71        C1150   1.509       .  S
C72         C862   1.500       .  S
O73         Cu81   2.017       .  S
O73          C83   1.281       .  A
O74         Cu81   2.017       .  S
O74          C84   1.279       .  A
O75         Cu81   1.996       .  S
O75          C85   1.277       .  A
O76         Cu81   1.985       .  S
O76          C86   1.275       .  A
O77         Cu82   2.026       .  S
O77          C86   1.280       .  A
O78         Cu82   2.023       .  S
O78          C85   1.279       .  A
O79         Cu82   2.004       .  S
O79          C84   1.276       .  A
O80         Cu82   1.995       .  S
O80          C83   1.274       .  A
Cu81        Cu82   2.367       .  S
C83        C1045   1.493       .  S
C84         C925   1.476       .  S
C85        C1006   1.492       .  S
C86         C829   1.480       .  S
C87          H88   1.110       .  S
C87          C93   1.526       .  S
C87          C92   1.537       .  S
C87          C91   1.527       .  S
C89          H90   1.108       .  S
C89          C95   1.543       .  S
C89          C94   1.557       .  S
C89          C96   1.538   1_545  S
C91          C94   1.380       .  D
C91         C838   1.497       .  S
C92          C95   1.380       .  D
C92         C781   1.495       .  S
C93          C96   1.369   1_545  D
C93         C766   1.485       .  S
C94         C805   1.495       .  S
C95         C742   1.495   1_556  S
C96        C1213   1.481       .  S
O97        Cu105   2.033       .  S
O97         C107   1.281   1_556  A
O98        Cu105   2.034       .  S
O98         C108   1.281       .  A
O99        Cu105   1.995       .  S
O99         C109   1.275   1_556  A
O100       Cu105   2.004       .  S
O100        C110   1.278   1_556  A
O101       Cu106   2.022       .  S
O101        C110   1.279       .  A
O102       Cu106   2.024       .  S
O102        C109   1.281       .  A
O103       Cu106   1.981       .  S
O103        C108   1.274   1_554  A
O104       Cu106   1.990       .  S
O104        C107   1.276       .  A
Cu105      Cu106   2.365   1_556  S
C107        C685   1.492       .  S
C108       C1030   1.485       .  S
C109        C709   1.479       .  S
C110        C814   1.498   1_554  S
O111       Cu119   2.029       .  S
O111        C121   1.280       .  A
O112       Cu119   2.026       .  S
O112        C122   1.280       .  A
O113       Cu119   1.998       .  S
O113        C123   1.276       .  A
O114       Cu119   2.008       .  S
O114        C124   1.278       .  A
O115       Cu120   2.018       .  S
O115        C124   1.279   1_545  A
O116       Cu120   2.025       .  S
O116        C123   1.281   1_545  A
O117       Cu120   1.982       .  S
O117        C122   1.275   1_545  A
O118       Cu120   1.994       .  S
O118        C121   1.275   1_545  A
Cu119      Cu120   2.369   1_565  S
C121        C637   1.474       .  S
C122        C910   1.482       .  S
C123        C757   1.480       .  S
C124        C661   1.494       .  S
O125       Cu133   2.019       .  S
O125        C135   1.280       .  A
O126       Cu133   2.022       .  S
O126        C136   1.279       .  A
O127       Cu133   2.003       .  S
O127        C137   1.278       .  A
O128       Cu133   1.996       .  S
O128        C138   1.275       .  A
O129       Cu134   2.005   1_655  S
O129        C138   1.278   1_655  A
O130       Cu134   2.008       .  S
O130        C137   1.278       .  A
O131       Cu134   1.992   1_655  S
O131        C136   1.275   1_655  A
O132       Cu134   1.978       .  S
O132        C135   1.274       .  A
Cu133      Cu134   2.371       .  S
C135        C613   1.479       .  S
C136        C565   1.477       .  S
C137        C550   1.487       .  S
C138        C598   1.471       .  S
O139       Cu147   2.025       .  S
O139        C149   1.281       .  A
O140       Cu147   2.031       .  S
O140        C150   1.282       .  A
O141       Cu147   1.988       .  S
O141        C151   1.276       .  A
O142       Cu147   2.006       .  S
O142        C152   1.276       .  A
O143       Cu148   2.008       .  S
O143        C152   1.278       .  A
O144       Cu148   2.010       .  S
O144        C151   1.278       .  A
O145       Cu148   1.978       .  S
O145        C150   1.273       .  A
O146       Cu148   1.985       .  S
O146        C149   1.273       .  A
Cu147      Cu148   2.369       .  S
C149        C949   1.491       .  S
C150        C517   1.481       .  S
C151        C886   1.480       .  S
C152        C493   1.470       .  S
O153       Cu161   2.025       .  S
O153        C163   1.279       .  A
O154       Cu161   2.021       .  S
O154        C164   1.280       .  A
O155       Cu161   2.001       .  S
O155        C165   1.276       .  A
O156       Cu161   2.011       .  S
O156        C166   1.279       .  A
O157       Cu162   2.018       .  S
O157        C166   1.278       .  A
O158       Cu162   2.018       .  S
O158        C165   1.280       .  A
O159       Cu162   1.985       .  S
O159        C164   1.275       .  A
O160       Cu162   1.996       .  S
O160        C163   1.276       .  A
Cu161      Cu162   2.369       .  S
C163       C1078   1.475       .  S
C164        C454   1.485       .  S
C165        C469   1.480       .  S
C166        C982   1.495       .  S
C167        H168   1.113       .  S
C167        C173   1.533       .  S
C167        C172   1.536   1_655  S
C167        C171   1.529       .  S
C169        H170   1.111       .  S
C169        C175   1.547       .  S
C169        C174   1.538   1_455  S
C169        C176   1.547   1_455  S
C171        C174   1.368       .  D
C171        C445   1.483       .  S
C172        C175   1.379       .  D
C172        C589   1.488       .  S
C173        C176   1.382       .  D
C173       C1198   1.496       .  S
C174        C421   1.486       .  S
C175        C502   1.491       .  S
C176       C1342   1.485       .  S
C177        H178   1.111       .  S
C177        C183   1.527       .  S
C177        C182   1.522       .  S
C177        C181   1.525       .  S
C179        H180   1.109       .  S
C179        C185   1.547       .  S
C179        C184   1.540       .  S
C179        C186   1.555   1_565  S
C181        C184   1.371       .  D
C181        C622   1.481       .  S
C182        C185   1.374       .  D
C182        C526   1.484       .  S
C183        C186   1.379   1_565  D
C183        C397   1.492       .  S
C184       C1126   1.483       .  S
C185        C670   1.486       .  S
C186        C382   1.493       .  S
C187        H188   1.112       .  S
C187        C193   1.536       .  S
C187        C192   1.533   1_655  S
C187        C191   1.529       .  S
C189        H190   1.111       .  S
C189        C195   1.539       .  S
C189        C194   1.546   1_455  S
C189        C196   1.546   1_454  S
C191        C194   1.376       .  D
C191        C478   1.498       .  S
C192        C195   1.371       .  D
C192        C358   1.474       .  S
C193        C196   1.380   1_554  D
C193        C718   1.495       .  S
C194        C574   1.479       .  S
C195        C334   1.498       .  S
C196       C1318   1.485       .  S
O197       Cu205   2.016       .  S
O197        C207   1.279   1_545  A
O198       Cu205   2.011       .  S
O198        C208   1.278   1_545  A
O199       Cu205   1.985       .  S
O199        C209   1.275   1_545  A
O200       Cu205   1.988       .  S
O200        C210   1.274   1_545  A
O201       Cu206   2.029       .  S
O201        C210   1.281       .  A
O202       Cu206   2.016       .  S
O202        C209   1.279       .  A
O203       Cu206   2.006       .  S
O203        C208   1.278       .  A
O204       Cu206   2.015       .  S
O204        C207   1.278       .  A
Cu205      Cu206   2.370   1_545  S
C207        C853   1.481       .  S
C208        C301   1.482       .  S
C209        C406   1.476       .  S
C210        C733   1.487       .  S
C211        H212   1.107       .  S
C211        C217   1.542       .  S
C211        C216   1.522       .  S
C211        C215   1.537       .  S
C213        H214   1.104       .  S
C213        C219   1.554       .  S
C213        C218   1.555       .  S
C213        C220   1.546       .  S
C215        C218   1.388       .  D
C215        C262   1.485       .  S
C216        C219   1.368       .  D
C216        C310   1.488       .  S
C217        C220   1.380       .  D
C217        C286   1.511       .  S
C218        C646   1.521   1_554  S
C219        C541   1.491   1_545  S
C220        C694   1.495       .  S
O221       Cu229   2.018       .  S
O221        C231   1.280       .  A
O222       Cu229   2.020       .  S
O222        C232   1.280       .  A
O223       Cu229   1.988       .  S
O223        C233   1.275       .  A
O224       Cu229   1.984       .  S
O224        C234   1.273       .  A
O225       Cu230   2.025       .  S
O225        C234   1.282   1_655  A
O226       Cu230   2.023       .  S
O226        C233   1.280   1_655  A
O227       Cu230   1.992       .  S
O227        C232   1.275   1_655  A
O228       Cu230   1.987       .  S
O228        C231   1.274   1_655  A
Cu229      Cu230   2.370   1_455  S
C231        C430   1.470       .  S
C232        C277   1.477       .  S
C233        C349   1.479       .  S
C234        C373   1.489       .  S
O235       Cu243   2.021       .  S
O235        C245   1.281       .  A
O236       Cu243   2.030       .  S
O236        C246   1.280       .  A
O237       Cu243   1.997       .  S
O237        C247   1.276       .  A
O238       Cu243   1.993       .  S
O238        C248   1.276       .  A
O239       Cu244   2.018       .  S
O239        C248   1.279   1_556  A
O240       Cu244   2.029       .  S
O240        C247   1.281   1_556  A
O241       Cu244   1.978       .  S
O241        C246   1.273   1_556  A
O242       Cu244   1.975       .  S
O242        C245   1.272   1_556  A
Cu243      Cu244   2.372   1_554  S
C245        C253   1.484       .  S
C246       C1102   1.469       .  S
C247        C325   1.481       .  S
C248        C790   1.478       .  S
C249        C250   1.400   1_556  A
C249        C254   1.395       .  A
C249        H259   1.084       .  S
C250        C255   1.481       .  S
C250        C251   1.416       .  A
C251        C252   1.399       .  A
C251        S256   1.807       .  S
C252        C253   1.406       .  A
C252        H257   1.084       .  S
C253        C254   1.419   1_554  A
C254        S258   1.803       .  S
C255        C260   1.410   1_554  A
C255        C264   1.405       .  A
S256        H272   1.398       .  S
S258        H269   1.408       .  S
C260        C261   1.395       .  A
C260        S265   1.811       .  S
C261        C262   1.399   1_556  A
C261        H266   1.076       .  S
C262        C263   1.409       .  A
C263        C264   1.402       .  A
C263        S267   1.793       .  S
C264        H268   1.084       .  S
S265        H270   1.406       .  S
S267        H271   1.407   1_554  S
C273        C274   1.400       .  A
C273        C278   1.397       .  A
C273        H283   1.084   1_455  S
C274        C279   1.479       .  S
C274        C275   1.413       .  A
C275        C276   1.400       .  A
C275        S280   1.804       .  S
C276        C277   1.403       .  A
C276        H281   1.084       .  S
C277        C278   1.416       .  A
C278        S282   1.803   1_455  S
C279        C284   1.405       .  A
C279        C288   1.395       .  A
S280        H296   1.406       .  S
S282        H293   1.407       .  S
C284        C285   1.403       .  A
C284        S289   1.806   1_455  S
C285        C286   1.412       .  A
C285        H290   1.078       .  S
C286        C287   1.419       .  A
C287        C288   1.399       .  A
C287        S291   1.793       .  S
C288        H292   1.083       .  S
S289        H294   1.407       .  S
S291        H295   1.407       .  S
C297        C298   1.403   1_545  A
C297        C302   1.400       .  A
C297        H307   1.084       .  S
C298        C303   1.478   1_565  S
C298        C299   1.410       .  A
C299        C300   1.399       .  A
C299        S304   1.805       .  S
C300        C301   1.407       .  A
C300        H305   1.084       .  S
C301        C302   1.414   1_565  A
C302        S306   1.803       .  S
C303        C308   1.408       .  A
C303        C312   1.398   1_545  A
S304        H320   1.405       .  S
S306        H317   1.408       .  S
C308        C309   1.403       .  A
C308        S313   1.806       .  S
C309        C310   1.405       .  A
C309        H314   1.083       .  S
C310        C311   1.416   1_545  A
C311        C312   1.401       .  A
C311        S315   1.803       .  S
C312        H316   1.083       .  S
S313        H318   1.406       .  S
S315        H319   1.406       .  S
C321        C322   1.407       .  A
C321        C326   1.403       .  A
C321        H331   1.084       .  S
C322        C327   1.489       .  S
C322        C323   1.413       .  A
C323        C324   1.402       .  A
C323        S328   1.809       .  S
C324        C325   1.405       .  A
C324        H329   1.083       .  S
C325        C326   1.413       .  A
C326        S330   1.803   1_554  S
C327        C332   1.412       .  A
C327        C336   1.398       .  A
S328        H344   1.407       .  S
S330        H341   1.404   1_556  S
C332        C333   1.408       .  A
C332        S337   1.805       .  S
C333        C334   1.407       .  A
C333        H338   1.082       .  S
C334        C335   1.416       .  A
C335        C336   1.399       .  A
C335        S339   1.800   1_554  S
C336        H340   1.083   1_554  S
S337        H342   1.407       .  S
S339        H343   1.406       .  S
C345        C346   1.400       .  A
C345        C350   1.401       .  A
C345        H355   1.083       .  S
C346        C351   1.478       .  S
C346        C347   1.413   1_455  A
C347        C348   1.398       .  A
C347        S352   1.805       .  S
C348        C349   1.403   1_655  A
C348        H353   1.084       .  S
C349        C350   1.416       .  A
C350        S354   1.808       .  S
C351        C356   1.408       .  A
C351        C360   1.405       .  A
S352        H368   1.407       .  S
S354        H365   1.407       .  S
C356        C357   1.397       .  A
C356        S361   1.807       .  S
C357        C358   1.403       .  A
C357        H362   1.082       .  S
C358        C359   1.409       .  A
C359        C360   1.399       .  A
C359        S363   1.805       .  S
C360        H364   1.084       .  S
S361        H366   1.407       .  S
S363        H367   1.401       .  S
C369        C370   1.398       .  A
C369        C374   1.397       .  A
C369        H379   1.084       .  S
C370        C375   1.477       .  S
C370        C371   1.410       .  A
C371        C372   1.399       .  A
C371        S376   1.804   1_455  S
C372        C373   1.407       .  A
C372        H377   1.083   1_455  S
C373        C374   1.423       .  A
C374        S378   1.803       .  S
C375        C380   1.408       .  A
C375        C384   1.404       .  A
S376        H392   1.406       .  S
S378        H389   1.403       .  S
C380        C381   1.391       .  A
C380        S385   1.806       .  S
C381        C382   1.407       .  A
C381        H386   1.081       .  S
C382        C383   1.414       .  A
C383        C384   1.406       .  A
C383        S387   1.806       .  S
C384        H388   1.083       .  S
S385        H390   1.406       .  S
S387        H391   1.406       .  S
C393        C394   1.399   1_545  A
C393        C398   1.399       .  A
C393        H403   1.083       .  S
C394        C399   1.475       .  S
C394        C395   1.407       .  A
C395        C396   1.396       .  A
C395        S400   1.803       .  S
C396        C397   1.407       .  A
C396        H401   1.084       .  S
C397        C398   1.417   1_565  A
C398        S402   1.801       .  S
C399        C404   1.405   1_565  A
C399        C408   1.404       .  A
S400        H416   1.406       .  S
S402        H413   1.407       .  S
C404        C405   1.399       .  A
C404        S409   1.807       .  S
C405        C406   1.408   1_545  A
C405        H410   1.083       .  S
C406        C407   1.412       .  A
C407        C408   1.399       .  A
C407        S411   1.802       .  S
C408        H412   1.084       .  S
S409        H414   1.407       .  S
S411        H415   1.407       .  S
C417        C418   1.398   1_455  A
C417        C422   1.397       .  A
C417        H427   1.083       .  S
C418        C423   1.475       .  S
C418        C419   1.410       .  A
C419        C420   1.398       .  A
C419        S424   1.803       .  S
C420        C421   1.405       .  A
C420        H425   1.081       .  S
C421        C422   1.413   1_655  A
C422        S426   1.801       .  S
C423        C428   1.412       .  A
C423        C432   1.402   1_655  A
S424        H440   1.406       .  S
S426        H437   1.406       .  S
C428        C429   1.400       .  A
C428        S433   1.810       .  S
C429        C430   1.403   1_655  A
C429        H434   1.083       .  S
C430        C431   1.410       .  A
C431        C432   1.397       .  A
C431        S435   1.800       .  S
C432        H436   1.084       .  S
S433        H438   1.406       .  S
S435        H439   1.407       .  S
C441        C442   1.398       .  A
C441        C446   1.395       .  A
C441        H451   1.083       .  S
C442        C447   1.477       .  S
C442        C443   1.413       .  A
C443        C444   1.402       .  A
C443        S448   1.802       .  S
C444        C445   1.403       .  A
C444        H449   1.084       .  S
C445        C446   1.408       .  A
C446        S450   1.796       .  S
C447        C452   1.407       .  A
C447        C456   1.400       .  A
S448        H464   1.406       .  S
S450        H461   1.407       .  S
C452        C453   1.402       .  A
C452        S457   1.807       .  S
C453        C454   1.409       .  A
C453        H458   1.082       .  S
C454        C455   1.418       .  A
C455        C456   1.397       .  A
C455        S459   1.801       .  S
C456        H460   1.084       .  S
S457        H462   1.407       .  S
S459        H463   1.408       .  S
C465        C466   1.399       .  A
C465        C470   1.396       .  A
C465        H475   1.084       .  S
C466        C471   1.475       .  S
C466        C467   1.412       .  A
C467        C468   1.402       .  A
C467        S472   1.804       .  S
C468        C469   1.405       .  A
C468        H473   1.084       .  S
C469        C470   1.416       .  A
C470        S474   1.801       .  S
C471        C476   1.408       .  A
C471        C480   1.391       .  A
S472        H488   1.405       .  S
S474        H485   1.403       .  S
C476        C477   1.408       .  A
C476        S481   1.803       .  S
C477        C478   1.410       .  A
C477        H482   1.081       .  S
C478        C479   1.417       .  A
C479        C480   1.392       .  A
C479        S483   1.796       .  S
C480        H484   1.084       .  S
S481        H486   1.407       .  S
S483        H487   1.407       .  S
C489        C490   1.403       .  A
C489        C494   1.394       .  A
C489        H499   1.084       .  S
C490        C495   1.482       .  S
C490        C491   1.414       .  A
C491        C492   1.403       .  A
C491        S496   1.803       .  S
C492        C493   1.403       .  A
C492        H497   1.084       .  S
C493        C494   1.410       .  A
C494        S498   1.803       .  S
C495        C500   1.408       .  A
C495        C504   1.403       .  A
S496        H512   1.406       .  S
S498        H509   1.405       .  S
C500        C501   1.396       .  A
C500        S505   1.808       .  S
C501        C502   1.405       .  A
C501        H506   1.082       .  S
C502        C503   1.420       .  A
C503        C504   1.402       .  A
C503        S507   1.806       .  S
C504        H508   1.084       .  S
S505        H510   1.407       .  S
S507        H511   1.403       .  S
C513        C514   1.398       .  A
C513        C518   1.396       .  A
C513        H523   1.084       .  S
C514        C519   1.478       .  S
C514        C515   1.415       .  A
C515        C516   1.401       .  A
C515        S520   1.804       .  S
C516        C517   1.403       .  A
C516        H521   1.084       .  S
C517        C518   1.420       .  A
C518        S522   1.804       .  S
C519        C524   1.409       .  A
C519        C528   1.400       .  A
S520        H536   1.404       .  S
S522        H533   1.408       .  S
C524        C525   1.401       .  A
C524        S529   1.806       .  S
C525        C526   1.403       .  A
C525        H530   1.082       .  S
C526        C527   1.413       .  A
C527        C528   1.400       .  A
C527        S531   1.807       .  S
C528        H532   1.083       .  S
S529        H534   1.407       .  S
S531        H535   1.406       .  S
C537        C538   1.400       .  A
C537        C542   1.403       .  A
C537        H547   1.083       .  S
C538        C543   1.476       .  S
C538        C539   1.408       .  A
C539        C540   1.397       .  A
C539        S544   1.804       .  S
C540        C541   1.401       .  A
C540        H545   1.076       .  S
C541        C542   1.414       .  A
C542        S546   1.802   1_565  S
C543        C548   1.406       .  A
C543        C552   1.399       .  A
S544        H560   1.404       .  S
S546        H557   1.406   1_545  S
C548        C549   1.401       .  A
C548        S553   1.808       .  S
C549        C550   1.409       .  A
C549        H554   1.082       .  S
C550        C551   1.418       .  A
C551        C552   1.400       .  A
C551        S555   1.802   1_455  S
C552        H556   1.084   1_455  S
S553        H558   1.407       .  S
S555        H559   1.408       .  S
C561        C562   1.400   1_655  A
C561        C566   1.399       .  A
C561        H571   1.083       .  S
C562        C567   1.480       .  S
C562        C563   1.414       .  A
C563        C564   1.402       .  A
C563        S568   1.804       .  S
C564        C565   1.404       .  A
C564        H569   1.084       .  S
C565        C566   1.415   1_455  A
C566        S570   1.810       .  S
C567        C572   1.409       .  A
C567        C576   1.405   1_455  A
S568        H584   1.406       .  S
S570        H581   1.407       .  S
C572        C573   1.398       .  A
C572        S577   1.808       .  S
C573        C574   1.403   1_455  A
C573        H578   1.082       .  S
C574        C575   1.414       .  A
C575        C576   1.401       .  A
C575        S579   1.807       .  S
C576        H580   1.084       .  S
S577        H582   1.407       .  S
S579        H583   1.400       .  S
C585        C586   1.404       .  A
C585        C590   1.404       .  A
C585        H595   1.084       .  S
C586        C591   1.473       .  S
C586        C587   1.405   1_455  A
C587        C588   1.387       .  A
C587        S592   1.806       .  S
C588        C589   1.404   1_655  A
C588        H593   1.077       .  S
C589        C590   1.420       .  A
C590        S594   1.806       .  S
C591        C596   1.407       .  A
C591        C600   1.403       .  A
S592        H608   1.405       .  S
S594        H605   1.398       .  S
C596        C597   1.399       .  A
C596        S601   1.807   1_455  S
C597        C598   1.404       .  A
C597        H602   1.083   1_455  S
C598        C599   1.411       .  A
C599        C600   1.402       .  A
C599        S603   1.807       .  S
C600        H604   1.083       .  S
S601        H606   1.407       .  S
S603        H607   1.407       .  S
C609        C610   1.404       .  A
C609        C614   1.398       .  A
C609        H619   1.084       .  S
C610        C615   1.473       .  S
C610        C611   1.407       .  A
C611        C612   1.395       .  A
C611        S616   1.805   1_455  S
C612        C613   1.409       .  A
C612        H617   1.084   1_455  S
C613        C614   1.413       .  A
C614        S618   1.802       .  S
C615        C620   1.405       .  A
C615        C624   1.398       .  A
S616        H632   1.406       .  S
S618        H629   1.408       .  S
C620        C621   1.399       .  A
C620        S625   1.803       .  S
C621        C622   1.405       .  A
C621        H626   1.084       .  S
C622        C623   1.418       .  A
C623        C624   1.395       .  A
C623        S627   1.802       .  S
C624        H628   1.084       .  S
S625        H630   1.407       .  S
S627        H631   1.394       .  S
C633        C634   1.403       .  A
C633        C638   1.401       .  A
C633        H643   1.084       .  S
C634        C639   1.484       .  S
C634        C635   1.415   1_545  A
C635        C636   1.399       .  A
C635        S640   1.805       .  S
C636        C637   1.401       .  A
C636        H641   1.084       .  S
C637        C638   1.413   1_565  A
C638        S642   1.803       .  S
C639        C644   1.405       .  A
C639        C648   1.396   1_545  A
S640        H656   1.406   1_565  S
S642        H653   1.407       .  S
C644        C645   1.403       .  A
C644        S649   1.807       .  S
C645        C646   1.409       .  A
C645        H650   1.071       .  S
C646        C647   1.425       .  A
C647        C648   1.404   1_545  A
C647        S651   1.798   1_545  S
C648        H652   1.083       .  S
S649        H654   1.407       .  S
S651        H655   1.406       .  S
C657        C658   1.401   1_545  A
C657        C662   1.401       .  A
C657        H667   1.084       .  S
C658        C663   1.480       .  S
C658        C659   1.410       .  A
C659        C660   1.400       .  A
C659        S664   1.807       .  S
C660        C661   1.410       .  A
C660        H665   1.083       .  S
C661        C662   1.419   1_565  A
C662        S666   1.801       .  S
C663        C668   1.410       .  A
C663        C672   1.398       .  A
S664        H680   1.405       .  S
S666        H677   1.406       .  S
C668        C669   1.408       .  A
C668        S673   1.804       .  S
C669        C670   1.404       .  A
C669        H674   1.083       .  S
C670        C671   1.415       .  A
C671        C672   1.394       .  A
C671        S675   1.799   1_565  S
C672        H676   1.084       .  S
S673        H678   1.407       .  S
S675        H679   1.396       .  S
C681        C682   1.403   1_556  A
C681        C686   1.405       .  A
C681        H691   1.084       .  S
C682        C687   1.478       .  S
C682        C683   1.408       .  A
C683        C684   1.395       .  A
C683        S688   1.806       .  S
C684        C685   1.409       .  A
C684        H689   1.083       .  S
C685        C686   1.418   1_554  A
C686        S690   1.801       .  S
C687        C692   1.407       .  A
C687        C696   1.396       .  A
S688        H704   1.405       .  S
S690        H701   1.408       .  S
C692        C693   1.407       .  A
C692        S697   1.804       .  S
C693        C694   1.407   1_655  A
C693        H698   1.083       .  S
C694        C695   1.418   1_455  A
C695        C696   1.397       .  A
C695        S699   1.803   1_655  S
C696        H700   1.083       .  S
S697        H702   1.407   1_545  S
S699        H703   1.406       .  S
C705        C706   1.402   1_556  A
C705        C710   1.400       .  A
C705        H715   1.084       .  S
C706        C711   1.479       .  S
C706        C707   1.413       .  A
C707        C708   1.400       .  A
C707        S712   1.805       .  S
C708        C709   1.404       .  A
C708        H713   1.084       .  S
C709        C710   1.415   1_554  A
C710        S714   1.803       .  S
C711        C716   1.403       .  A
C711        C720   1.404   1_554  A
S712        H728   1.405       .  S
S714        H725   1.407       .  S
C716        C717   1.394       .  A
C716        S721   1.808       .  S
C717        C718   1.405       .  A
C717        H722   1.077       .  S
C718        C719   1.422   1_554  A
C719        C720   1.407       .  A
C719        S723   1.804       .  S
C720        H724   1.084       .  S
S721        H726   1.407       .  S
S723        H727   1.400       .  S
C729        C730   1.401   1_545  A
C729        C734   1.402       .  A
C729        H739   1.083       .  S
C730        C735   1.485   1_565  S
C730        C731   1.413       .  A
C731        C732   1.401       .  A
C731        S736   1.805       .  S
C732        C733   1.407       .  A
C732        H737   1.083       .  S
C733        C734   1.418   1_565  A
C734        S738   1.809       .  S
C735        C740   1.411       .  A
C735        C744   1.404       .  A
S736        H752   1.406       .  S
S738        H749   1.407       .  S
C740        C741   1.399       .  A
C740        S745   1.809   1_545  S
C741        C742   1.405       .  A
C741        H746   1.082       .  S
C742        C743   1.416       .  A
C743        C744   1.406       .  A
C743        S747   1.808       .  S
C744        H748   1.083       .  S
S745        H750   1.407   1_565  S
S747        H751   1.406       .  S
C753        C754   1.399       .  A
C753        C758   1.399       .  A
C753        H763   1.084       .  S
C754        C759   1.478       .  S
C754        C755   1.414   1_565  A
C755        C756   1.401       .  A
C755        S760   1.805       .  S
C756        C757   1.402   1_545  A
C756        H761   1.084       .  S
C757        C758   1.418       .  A
C758        S762   1.803       .  S
C759        C764   1.407       .  A
C759        C768   1.399   1_565  A
S760        H776   1.403       .  S
S762        H773   1.406       .  S
C764        C765   1.403       .  A
C764        S769   1.804       .  S
C765        C766   1.406   1_565  A
C765        H770   1.081       .  S
C766        C767   1.413       .  A
C767        C768   1.397       .  A
C767        S771   1.801       .  S
C768        H772   1.084       .  S
S769        H774   1.407       .  S
S771        H775   1.401       .  S
C777        C778   1.396   1_554  A
C777        C782   1.399       .  A
C777        H787   1.083       .  S
C778        C783   1.476       .  S
C778        C779   1.408       .  A
C779        C780   1.400       .  A
C779        S784   1.803       .  S
C780        C781   1.408       .  A
C780        H785   1.084       .  S
C781        C782   1.420   1_556  A
C782        S786   1.804       .  S
C783        C788   1.405   1_556  A
C783        C792   1.402       .  A
S784        H800   1.405       .  S
S786        H797   1.406       .  S
C788        C789   1.401       .  A
C788        S793   1.807       .  S
C789        C790   1.408       .  A
C789        H794   1.083       .  S
C790        C791   1.413   1_554  A
C791        C792   1.399       .  A
C791        S795   1.802       .  S
C792        H796   1.083       .  S
S793        H798   1.407       .  S
S795        H799   1.406       .  S
C801        C802   1.398       .  A
C801        C806   1.399       .  A
C801        H811   1.083       .  S
C802        C807   1.483       .  S
C802        C803   1.412       .  A
C803        C804   1.403       .  A
C803        S808   1.803       .  S
C804        C805   1.406       .  A
C804        H809   1.083       .  S
C805        C806   1.419       .  A
C806        S810   1.805       .  S
C807        C812   1.407       .  A
C807        C816   1.401   1_556  A
S808        H824   1.405       .  S
S810        H821   1.406       .  S
C812        C813   1.403       .  A
C812        S817   1.807       .  S
C813        C814   1.412       .  A
C813        H818   1.082       .  S
C814        C815   1.421   1_556  A
C815        C816   1.401       .  A
C815        S819   1.800       .  S
C816        H820   1.084       .  S
S817        H822   1.407       .  S
S819        H823   1.408       .  S
C825        C826   1.405       .  A
C825        C830   1.401       .  A
C825        H835   1.084       .  S
C826        C831   1.479       .  S
C826        C827   1.409       .  A
C827        C828   1.396       .  A
C827        S832   1.805       .  S
C828        C829   1.407       .  A
C828        H833   1.084       .  S
C829        C830   1.414       .  A
C830        S834   1.802       .  S
C831        C836   1.405       .  A
C831        C840   1.401       .  A
S832        H848   1.406       .  S
S834        H845   1.407       .  S
C836        C837   1.399       .  A
C836        S841   1.806       .  S
C837        C838   1.410       .  A
C837        H842   1.083       .  S
C838        C839   1.416       .  A
C839        C840   1.402       .  A
C839        S843   1.801       .  S
C840        H844   1.083       .  S
S841        H846   1.406       .  S
S843        H847   1.407       .  S
C849        C850   1.403       .  A
C849        C854   1.402       .  A
C849        H859   1.084   1_565  S
C850        C855   1.486       .  S
C850        C851   1.415       .  A
C851        C852   1.401       .  A
C851        S856   1.806       .  S
C852        C853   1.404       .  A
C852        H857   1.084       .  S
C853        C854   1.414       .  A
C854        S858   1.803   1_565  S
C855        C860   1.408       .  A
C855        C864   1.401       .  A
S856        H872   1.406       .  S
S858        H869   1.407   1_545  S
C860        C861   1.403       .  A
C860        S865   1.806       .  S
C861        C862   1.407       .  A
C861        H866   1.078       .  S
C862        C863   1.417       .  A
C863        C864   1.405       .  A
C863        S867   1.804   1_565  S
C864        H868   1.083   1_565  S
S865        H870   1.407       .  S
S867        H871   1.406       .  S
C873        C874   1.397       .  A
C873        C878   1.394       .  A
C873        H883   1.084       .  S
C874        C879   1.471       .  S
C874        C875   1.412       .  A
C875        C876   1.397       .  A
C875        S880   1.805       .  S
C876        C877   1.400       .  A
C876        H881   1.078       .  S
C877        C878   1.418       .  A
C878        S882   1.804       .  S
C879        C884   1.404       .  A
C879        C888   1.401       .  A
S880        H896   1.405       .  S
S882        H893   1.391       .  S
C884        C885   1.399       .  A
C884        S889   1.806       .  S
C885        C886   1.409       .  A
C885        H890   1.082       .  S
C886        C887   1.415       .  A
C887        C888   1.397       .  A
C887        S891   1.802       .  S
C888        H892   1.084       .  S
S889        H894   1.406       .  S
S891        H895   1.408       .  S
C897        C898   1.400       .  A
C897        C902   1.403       .  A
C897        H907   1.083       .  S
C898        C903   1.474       .  S
C898        C899   1.409       .  A
C899        C900   1.395       .  A
C899        S904   1.806       .  S
C900        C901   1.402       .  A
C900        H905   1.074       .  S
C901        C902   1.416       .  A
C902        S906   1.806       .  S
C903        C908   1.404   1_565  A
C903        C912   1.403       .  A
S904        H920   1.405       .  S
S906        H917   1.406   1_565  S
C908        C909   1.398       .  A
C908        S913   1.808       .  S
C909        C910   1.408   1_545  A
C909        H914   1.082       .  S
C910        C911   1.415       .  A
C911        C912   1.402       .  A
C911        S915   1.802       .  S
C912        H916   1.084       .  S
S913        H918   1.406       .  S
S915        H919   1.408       .  S
C921        C922   1.403       .  A
C921        C926   1.401       .  A
C921        H931   1.084       .  S
C922        C927   1.485       .  S
C922        C923   1.416       .  A
C923        C924   1.399       .  A
C923        S928   1.805       .  S
C924        C925   1.402       .  A
C924        H929   1.084       .  S
C925        C926   1.413       .  A
C926        S930   1.801       .  S
C927        C932   1.406       .  A
C927        C936   1.395       .  A
S928        H944   1.407       .  S
S930        H941   1.407       .  S
C932        C933   1.404       .  A
C932        S937   1.807       .  S
C933        C934   1.410       .  A
C933        H938   1.069       .  S
C934        C935   1.429       .  A
C935        C936   1.401       .  A
C935        S939   1.803       .  S
C936        H940   1.083       .  S
S937        H942   1.407       .  S
S939        H943   1.407       .  S
C945        C946   1.397       .  A
C945        C950   1.397       .  A
C945        H955   1.083       .  S
C946        C951   1.478       .  S
C946        C947   1.410       .  A
C947        C948   1.403       .  A
C947        S952   1.804       .  S
C948        C949   1.410       .  A
C948        H953   1.083       .  S
C949        C950   1.424       .  A
C950        S954   1.813       .  S
C951        C956   1.409       .  A
C951        C960   1.401       .  A
S952        H968   1.405       .  S
S954        H965   1.407       .  S
C956        C957   1.401       .  A
C956        S961   1.806       .  S
C957        C958   1.406       .  A
C957        H962   1.081       .  S
C958        C959   1.411       .  A
C959        C960   1.397       .  A
C959        S963   1.793       .  S
C960        H964   1.084       .  S
S961        H966   1.407       .  S
S963        H967   1.403       .  S
C969        C970   1.398       .  A
C969        C974   1.397       .  A
C969        H979   1.083       .  S
C970        C975   1.482       .  S
C970        C971   1.414       .  A
C971        C972   1.404       .  A
C971        S976   1.802       .  S
C972        C973   1.402       .  A
C972        H977   1.083       .  S
C973        C974   1.414       .  A
C974        S978   1.805       .  S
C975        C980   1.408       .  A
C975        C984   1.400       .  A
S976        H992   1.406       .  S
S978        H989   1.406       .  S
C980        C981   1.403       .  A
C980        S985   1.808       .  S
C981        C982   1.410       .  A
C981        H986   1.082       .  S
C982        C983   1.421       .  A
C983        C984   1.401       .  A
C983        S987   1.801       .  S
C984        H988   1.084       .  S
S985        H990   1.406       .  S
S987        H991   1.400       .  S
C993        C994   1.397       .  A
C993        C998   1.396       .  A
C993       H1003   1.083       .  S
C994        C999   1.478       .  S
C994        C995   1.412       .  A
C995        C996   1.402       .  A
C995       S1000   1.803       .  S
C996        C997   1.403       .  A
C996       H1001   1.079       .  S
C997        C998   1.418       .  A
C998       S1002   1.809       .  S
C999       C1004   1.406       .  A
C999       C1008   1.401       .  A
S1000      H1016   1.405       .  S
S1002      H1013   1.406       .  S
C1004      C1005   1.401       .  A
C1004      S1009   1.809       .  S
C1005      C1006   1.411       .  A
C1005      H1010   1.082       .  S
C1006      C1007   1.419       .  A
C1007      C1008   1.401       .  A
C1007      S1011   1.801       .  S
C1008      H1012   1.084       .  S
S1009      H1014   1.406       .  S
S1011      H1015   1.404       .  S
C1017      C1018   1.398   1_554  A
C1017      C1022   1.401       .  A
C1017      H1027   1.083       .  S
C1018      C1023   1.478       .  S
C1018      C1019   1.410       .  A
C1019      C1020   1.400       .  A
C1019      S1024   1.804       .  S
C1020      C1021   1.404       .  A
C1020      H1025   1.076       .  S
C1021      C1022   1.417   1_556  A
C1022      S1026   1.804       .  S
C1023      C1028   1.404   1_556  A
C1023      C1032   1.403       .  A
S1024      H1040   1.404       .  S
S1026      H1037   1.406       .  S
C1028      C1029   1.399       .  A
C1028      S1033   1.807       .  S
C1029      C1030   1.410   1_554  A
C1029      H1034   1.083       .  S
C1030      C1031   1.414       .  A
C1031      C1032   1.407       .  A
C1031      S1035   1.807       .  S
C1032      H1036   1.083       .  S
S1033      H1038   1.407       .  S
S1035      H1039   1.407       .  S
C1041      C1042   1.398       .  A
C1041      C1046   1.404       .  A
C1041      H1051   1.083       .  S
C1042      C1047   1.476       .  S
C1042      C1043   1.408       .  A
C1043      C1044   1.396       .  A
C1043      S1048   1.806       .  S
C1044      C1045   1.408       .  A
C1044      H1049   1.083       .  S
C1045      C1046   1.425       .  A
C1046      S1050   1.811       .  S
C1047      C1052   1.406       .  A
C1047      C1056   1.401       .  A
S1048      H1064   1.406       .  S
S1050      H1061   1.407       .  S
C1052      C1053   1.400       .  A
C1052      S1057   1.806       .  S
C1053      C1054   1.404       .  A
C1053      H1058   1.081       .  S
C1054      C1055   1.408       .  A
C1055      C1056   1.398       .  A
C1055      S1059   1.789       .  S
C1056      H1060   1.084       .  S
S1057      H1062   1.407       .  S
S1059      H1063   1.407       .  S
C1065      C1066   1.392       .  A
C1065      C1070   1.407       .  A
C1065      H1075   1.083       .  S
C1066      C1071   1.480       .  S
C1066      C1067   1.403       .  A
C1067      C1068   1.395       .  A
C1067      S1072   1.806       .  S
C1068      C1069   1.412       .  A
C1068      H1073   1.064       .  S
C1069      C1070   1.440       .  A
C1070      S1074   1.807       .  S
C1071      C1076   1.411       .  A
C1071      C1080   1.400       .  A
S1072      H1088   1.406       .  S
S1074      H1085   1.406       .  S
C1076      C1077   1.406       .  A
C1076      S1081   1.806       .  S
C1077      C1078   1.404       .  A
C1077      H1082   1.083       .  S
C1078      C1079   1.412       .  A
C1079      C1080   1.395       .  A
C1079      S1083   1.799       .  S
C1080      H1084   1.084       .  S
S1081      H1086   1.407       .  S
S1083      H1087   1.407       .  S
C1089      C1090   1.398   1_554  A
C1089      C1094   1.402       .  A
C1089      H1099   1.083       .  S
C1090      C1095   1.477   1_556  S
C1090      C1091   1.411       .  A
C1091      C1092   1.397       .  A
C1091      S1096   1.804       .  S
C1092      C1093   1.403       .  A
C1092      H1097   1.077       .  S
C1093      C1094   1.417   1_556  A
C1094      S1098   1.804       .  S
C1095      C1100   1.409   1_554  A
C1095      C1104   1.404       .  A
S1096      H1112   1.406       .  S
S1098      H1109   1.406       .  S
C1100      C1101   1.397       .  A
C1100      S1105   1.810       .  S
C1101      C1102   1.403   1_556  A
C1101      H1106   1.082       .  S
C1102      C1103   1.413       .  A
C1103      C1104   1.403       .  A
C1103      S1107   1.805       .  S
C1104      H1108   1.084       .  S
S1105      H1110   1.407       .  S
S1107      H1111   1.402       .  S
C1113      C1114   1.402       .  A
C1113      C1118   1.404       .  A
C1113      H1123   1.084       .  S
C1114      C1119   1.478       .  S
C1114      C1115   1.409       .  A
C1115      C1116   1.396       .  A
C1115      S1120   1.806       .  S
C1116      C1117   1.408       .  A
C1116      H1121   1.084       .  S
C1117      C1118   1.418       .  A
C1118      S1122   1.801       .  S
C1119      C1124   1.409       .  A
C1119      C1128   1.400       .  A
S1120      H1136   1.405       .  S
S1122      H1133   1.408       .  S
C1124      C1125   1.406       .  A
C1124      S1129   1.804       .  S
C1125      C1126   1.403   1_655  A
C1125      H1130   1.083       .  S
C1126      C1127   1.412       .  A
C1127      C1128   1.399   1_455  A
C1127      S1131   1.807       .  S
C1128      H1132   1.083       .  S
S1129      H1134   1.407   1_565  S
S1131      H1135   1.406       .  S
C1137      C1138   1.404       .  A
C1137      C1142   1.400       .  A
C1137      H1147   1.084       .  S
C1138      C1143   1.488       .  S
C1138      C1139   1.415       .  A
C1139      C1140   1.401       .  A
C1139      S1144   1.804       .  S
C1140      C1141   1.402       .  A
C1140      H1145   1.084       .  S
C1141      C1142   1.412       .  A
C1142      S1146   1.802       .  S
C1143      C1148   1.407       .  A
C1143      C1152   1.400       .  A
S1144      H1160   1.407       .  S
S1146      H1157   1.405       .  S
C1148      C1149   1.403       .  A
C1148      S1153   1.807       .  S
C1149      C1150   1.412       .  A
C1149      H1154   1.079       .  S
C1150      C1151   1.419       .  A
C1151      C1152   1.403       .  A
C1151      S1155   1.797       .  S
C1152      H1156   1.083       .  S
S1153      H1158   1.407       .  S
S1155      H1159   1.406       .  S
C1161      C1162   1.401       .  A
C1161      C1166   1.398       .  A
C1161      H1171   1.084       .  S
C1162      C1167   1.474       .  S
C1162      C1163   1.409       .  A
C1163      C1164   1.399       .  A
C1163      S1168   1.804       .  S
C1164      C1165   1.407       .  A
C1164      H1169   1.084       .  S
C1165      C1166   1.414       .  A
C1166      S1170   1.802       .  S
C1167      C1172   1.406       .  A
C1167      C1176   1.394       .  A
S1168      H1184   1.405       .  S
S1170      H1181   1.407       .  S
C1172      C1173   1.404       .  A
C1172      S1177   1.805       .  S
C1173      C1174   1.408       .  A
C1173      H1178   1.077       .  S
C1174      C1175   1.416       .  A
C1175      C1176   1.398       .  A
C1175      S1179   1.798       .  S
C1176      H1180   1.083       .  S
S1177      H1182   1.407       .  S
S1179      H1183   1.406       .  S
C1185      C1186   1.401       .  A
C1185      C1190   1.401       .  A
C1185      H1195   1.084       .  S
C1186      C1191   1.476       .  S
C1186      C1187   1.412       .  A
C1187      C1188   1.398       .  A
C1187      S1192   1.805       .  S
C1188      C1189   1.403       .  A
C1188      H1193   1.084       .  S
C1189      C1190   1.417       .  A
C1190      S1194   1.803       .  S
C1191      C1196   1.401       .  A
C1191      C1200   1.403       .  A
S1192      H1208   1.403       .  S
S1194      H1205   1.408       .  S
C1196      C1197   1.393       .  A
C1196      S1201   1.809       .  S
C1197      C1198   1.408       .  A
C1197      H1202   1.074       .  S
C1198      C1199   1.421       .  A
C1199      C1200   1.406       .  A
C1199      S1203   1.800       .  S
C1200      H1204   1.084       .  S
S1201      H1206   1.407       .  S
S1203      H1207   1.391       .  S
C1209      C1210   1.400       .  A
C1209      C1214   1.397       .  A
C1209      H1219   1.083       .  S
C1210      C1215   1.481       .  S
C1210      C1211   1.414       .  A
C1211      C1212   1.403       .  A
C1211      S1216   1.803       .  S
C1212      C1213   1.403       .  A
C1212      H1217   1.084       .  S
C1213      C1214   1.406       .  A
C1214      S1218   1.799       .  S
C1215      C1220   1.409       .  A
C1215      C1224   1.403       .  A
S1216      H1232   1.406       .  S
S1218      H1229   1.407       .  S
C1220      C1221   1.401       .  A
C1220      S1225   1.809       .  S
C1221      C1222   1.409       .  A
C1221      H1226   1.082       .  S
C1222      C1223   1.416       .  A
C1223      C1224   1.401       .  A
C1223      S1227   1.802       .  S
C1224      H1228   1.084       .  S
S1225      H1230   1.407       .  S
S1227      H1231   1.408       .  S
C1233      C1234   1.403       .  A
C1233      C1238   1.402       .  A
C1233      H1243   1.084       .  S
C1234      C1239   1.482       .  S
C1234      C1235   1.410       .  A
C1235      C1236   1.398       .  A
C1235      S1240   1.803       .  S
C1236      C1237   1.404       .  A
C1236      H1241   1.084       .  S
C1237      C1238   1.416       .  A
C1238      S1242   1.803       .  S
C1239      C1244   1.410       .  A
C1239      C1248   1.402       .  A
S1240      H1256   1.406       .  S
S1242      H1253   1.401       .  S
C1244      C1245   1.407       .  A
C1244      S1249   1.806       .  S
C1245      C1246   1.404       .  A
C1245      H1250   1.083       .  S
C1246      C1247   1.412       .  A
C1247      C1248   1.399       .  A
C1247      S1251   1.804       .  S
C1248      H1252   1.084       .  S
S1249      H1254   1.407       .  S
S1251      H1255   1.405       .  S
C1257      C1258   1.404       .  A
C1257      C1262   1.406       .  A
C1257      H1267   1.084       .  S
C1258      C1263   1.479       .  S
C1258      C1259   1.405       .  A
C1259      C1260   1.395       .  A
C1259      S1264   1.805       .  S
C1260      C1261   1.412       .  A
C1260      H1265   1.083       .  S
C1261      C1262   1.419       .  A
C1262      S1266   1.800       .  S
C1263      C1268   1.408       .  A
C1263      C1272   1.400       .  A
S1264      H1280   1.405       .  S
S1266      H1277   1.408       .  S
C1268      C1269   1.402       .  A
C1268      S1273   1.807       .  S
C1269      C1270   1.401       .  A
C1269      H1274   1.076       .  S
C1270      C1271   1.419       .  A
C1271      C1272   1.404       .  A
C1271      S1275   1.814       .  S
C1272      H1276   1.083       .  S
S1273      H1278   1.407       .  S
S1275      H1279   1.406       .  S
C1281      C1282   1.402       .  A
C1281      C1286   1.398       .  A
C1281      H1291   1.084       .  S
C1282      C1287   1.477       .  S
C1282      C1283   1.411       .  A
C1283      C1284   1.401       .  A
C1283      S1288   1.804       .  S
C1284      C1285   1.405       .  A
C1284      H1289   1.084       .  S
C1285      C1286   1.414       .  A
C1286      S1290   1.803       .  S
C1287      C1292   1.404       .  A
C1287      C1296   1.388       .  A
S1288      H1304   1.404       .  S
S1290      H1301   1.406       .  S
C1292      C1293   1.409       .  A
C1292      S1297   1.805       .  S
C1293      C1294   1.415       .  A
C1293      H1298   1.070       .  S
C1294      C1295   1.427       .  A
C1295      C1296   1.394       .  A
C1295      S1299   1.798       .  S
C1296      H1300   1.084       .  S
S1297      H1302   1.407       .  S
S1299      H1303   1.407       .  S
C1305      C1306   1.400       .  A
C1305      C1310   1.394       .  A
C1305      H1315   1.083       .  S
C1306      C1311   1.473       .  S
C1306      C1307   1.414       .  A
C1307      C1308   1.402       .  A
C1307      S1312   1.804       .  S
C1308      C1309   1.402       .  A
C1308      H1313   1.084       .  S
C1309      C1310   1.410       .  A
C1310      S1314   1.810       .  S
C1311      C1316   1.405       .  A
C1311      C1320   1.404       .  A
S1312      H1328   1.405   1_655  S
S1314      H1325   1.407       .  S
C1316      C1317   1.396       .  A
C1316      S1321   1.808       .  S
C1317      C1318   1.406       .  A
C1317      H1322   1.081       .  S
C1318      C1319   1.413       .  A
C1319      C1320   1.403       .  A
C1319      S1323   1.806       .  S
C1320      H1324   1.083       .  S
S1321      H1326   1.407       .  S
S1323      H1327   1.406       .  S
C1329      C1330   1.400       .  A
C1329      C1334   1.393       .  A
C1329      H1339   1.082       .  S
C1330      C1335   1.477       .  S
C1330      C1331   1.413       .  A
C1331      C1332   1.405       .  A
C1331      S1336   1.803       .  S
C1332      C1333   1.404       .  A
C1332      H1337   1.084       .  S
C1333      C1334   1.409       .  A
C1334      S1338   1.803       .  S
C1335      C1340   1.406       .  A
C1335      C1344   1.404       .  A
S1336      H1352   1.405   1_655  S
S1338      H1349   1.406       .  S
C1340      C1341   1.399       .  A
C1340      S1345   1.807       .  S
C1341      C1342   1.406       .  A
C1341      H1346   1.082       .  S
C1342      C1343   1.412       .  A
C1343      C1344   1.402       .  A
C1343      S1347   1.802       .  S
C1344      H1348   1.084       .  S
S1345      H1350   1.407       .  S
S1347      H1351   1.403   1_655  S
C1353      C1354   1.401       .  A
C1353      C1358   1.397       .  A
C1353      H1363   1.084       .  S
C1354      C1359   1.479       .  S
C1354      C1355   1.411       .  A
C1355      C1356   1.399       .  A
C1355      S1360   1.805       .  S
C1356      C1357   1.407       .  A
C1356      H1361   1.083       .  S
C1357      C1358   1.419       .  A
C1358      S1362   1.803       .  S
C1359      C1364   1.407       .  A
C1359      C1368   1.403       .  A
S1360      H1376   1.406       .  S
S1362      H1373   1.408       .  S
C1364      C1365   1.397       .  A
C1364      S1369   1.808       .  S
C1365      C1366   1.402       .  A
C1365      H1370   1.081       .  S
C1366      C1367   1.413       .  A
C1367      C1368   1.402       .  A
C1367      S1371   1.794       .  S
C1368      H1372   1.084       .  S
S1369      H1374   1.407       .  S
S1371      H1375   1.397       .  S
C1377      C1378   1.399       .  A
C1377      C1382   1.395       .  A
C1377      H1387   1.084       .  S
C1378      C1383   1.467       .  S
C1378      C1379   1.409       .  A
C1379      C1380   1.395       .  A
C1379      S1384   1.804       .  S
C1380      C1381   1.403       .  A
C1380      H1385   1.084       .  S
C1381      C1382   1.414       .  A
C1382      S1386   1.802       .  S
C1383      C1388   1.401       .  A
C1383      C1392   1.389       .  A
S1384      H1400   1.406       .  S
S1386      H1397   1.405       .  S
C1388      C1389   1.401       .  A
C1388      S1393   1.806       .  S
C1389      C1390   1.412       .  A
C1389      H1394   1.067       .  S
C1390      C1391   1.418       .  A
C1391      C1392   1.393       .  A
C1391      S1395   1.788       .  S
C1392      H1396   1.084       .  S
S1393      H1398   1.407       .  S
S1395      H1399   1.407       .  S
