geometry optimzed in LAMMPS
_audit_creation_date              2020-11-30 
_audit_creation_method            'lammps2cif' 
_symmetry_space_group_name_H-M    'P1' 
_symmetry_Int_Tables_number       1 
_symmetry_cell_setting            triclinic 
loop_ 
_symmetry_equiv_pos_as_xyz 
  x,y,z 
_cell_length_a                    32.109682 
_cell_length_b                    24.699584795162117 
_cell_length_c                    33.059359004910796 
_cell_angle_alpha                 90.25816820127882 
_cell_angle_beta                  88.07928997078653 
_cell_angle_gamma                 90.3333255878932 
loop_ 
_atom_site_label 
_atom_site_type_symbol 
_atom_site_fract_x 
_atom_site_fract_y 
_atom_site_fract_z 
_atom_site_charge 
C1          C  0.06502687  0.34286649  0.49348307     0.85800
C2          C  0.09776279  0.35194343  0.02745818    -0.54400
C3          C  0.11287147  0.40282117  0.03327616     0.08700
C4          C  0.09689027  0.44437593  0.00305517     0.19700
C5          C  0.03349972  0.38989247  0.00262080    -0.55200
C6          C  0.04894843  0.44159879  0.00770853     0.08800
C7          C  0.09161564  0.36493790  0.45754637    -0.54700
C8          C  0.10722499  0.41556725  0.46349464     0.09400
H9          H  0.10623635  0.31817934  0.04640291     0.13900
H10         H  0.11134999  0.48476974  0.00670793    -0.00300
H11         H  0.00079110  0.37920436  0.00450021     0.14200
H12         H  0.10082539  0.34239465  0.43065857     0.14000
C13         C  0.50409483  0.58059206  0.02465579     0.85800
C14         C  0.47928487  0.55971684  0.06199016    -0.54400
C15         C  0.46184809  0.50993548  0.05697476     0.08700
C16         C  0.47359940  0.48308318  0.01618723     0.19700
C17         C  0.03732975  0.54234186  0.01907363    -0.55200
C18         C  0.02206539  0.49050711  0.01452814     0.08800
C19         C  0.47677176  0.57291042  0.48768478    -0.54700
C20         C  0.46238984  0.52122618  0.48247185     0.09400
H21         H  0.47351923  0.58330598  0.08934871     0.13900
H22         H  0.45996375  0.44222135  0.01360974    -0.00300
H23         H  0.07015063  0.55110989  0.01999808     0.14200
H24         H  0.46883551  0.60622054  0.46819330     0.14000
O25         O  0.29884135  0.58808075  0.23611453    -0.81600
O26         O  0.28683016  0.33942170  0.22221146    -0.66300
O27         O  0.26058418  0.48738133  0.24726211    -1.12900
C28         C  0.35302731  0.45690734  0.35430621     1.05300
O29         O  0.27037806  0.32134152  0.28570318    -0.79500
O30         O  0.25984792  0.39242461  0.34701176    -0.67100
Ni31       Ni  0.26092292  0.54234032  0.20737867     1.34900
C32         C  0.24268240  0.43838545  0.34995989     0.84000
O33         O  0.23664498  0.41279117  0.18740003    -0.80000
O34         O  0.22341240  0.50073047  0.17538839    -0.90300
C35         C  0.27987766  0.30483129  0.25014466     0.83600
O36         O  0.30662750  0.51675633  0.17545752    -0.68500
O37         O  0.34357365  0.40687588  0.35020464    -0.87800
C38         C  0.32759176  0.47346896  0.17286670     0.84500
C39         C  0.21880191  0.45028649  0.16785313     1.06000
H40         H  0.33916585  0.41896283  0.26547064     0.37800
O41         O  0.31079947  0.42001185  0.27616225    -1.10400
O42         O  0.25423327  0.47907113  0.32903301    -0.67100
Ni43       Ni  0.29908218  0.49333116  0.29019000     1.26300
O44         O  0.31983753  0.43219490  0.19484135    -0.67300
O45         O  0.33844946  0.49486932  0.33273837    -0.79600
C46         C  0.29193238  0.60326411  0.27235569     0.83800
O47         O  0.28709526  0.56849196  0.30028556    -0.66800
Ni48       Ni  0.30696005  0.36592641  0.31676340     1.27400
Ni49       Ni  0.27388206  0.41458230  0.23203413     1.26100
H50         H  0.23260627  0.48671052  0.25892351     0.38400
C51         C  0.32009468  0.07412578  0.24062445     0.85800
C52         C  0.34827263  0.05428412  0.20497816    -0.54400
C53         C  0.36433326  0.00378656  0.20988575     0.08700
C54         C  0.35024232  0.97674212  0.25005081     0.19700
C55         C  0.28663253  0.02936320  0.24550970    -0.55200
C56         C  0.30190641  0.97795721  0.25082389     0.08800
C57         C  0.34744958  0.06797126  0.27759990    -0.54700
C58         C  0.36265514  0.01730712  0.28302456     0.09400
H59         H  0.35734067  0.07806682  0.17874438     0.13900
H60         H  0.36444508  0.93646810  0.25366489    -0.00300
H61         H  0.25380337  0.03888307  0.24523445     0.14200
H62         H  0.35430984  0.10126155  0.29796818     0.14000
C63         C  0.25517930  0.83353845  0.27081358     0.85800
C64         C  0.22759893  0.83938904  0.23407956    -0.54400
C65         C  0.21232935  0.89002715  0.22879669     0.08700
C66         C  0.22609663  0.93109857  0.26084124     0.19700
C67         C  0.28933230  0.87722947  0.26324455    -0.55200
C68         C  0.27438112  0.92898952  0.25840503     0.08800
C69         C  0.22922383  0.85536776  0.30711380    -0.54700
C70         C  0.21301933  0.90551685  0.30175307     0.09400
H71         H  0.22187874  0.80632010  0.21317859     0.13900
H72         H  0.21217378  0.97150537  0.25691661    -0.00300
H73         H  0.32203473  0.86790657  0.26062408     0.14200
H74         H  0.22187091  0.83137909  0.33391216     0.14000
O75         O  0.03355849  0.09621137  0.03467869    -0.81600
O76         O  0.03680112  0.85172053  0.04155405    -0.66300
O77         O  0.06991571  0.99662080  0.01843309    -1.12900
C78         C  0.47453711  0.96860185  0.41108658     1.05300
O79         O  0.04494995  0.82725061  0.47854900    -0.79500
O80         O  0.05868475  0.89994770  0.41868883    -0.67100
Ni81       Ni  0.07249457  0.04938863  0.06004018     1.34900
C82         C  0.07886510  0.94420458  0.41684576     0.84000
O83         O  0.09080466  0.91981786  0.07658585    -0.80000
O84         O  0.11145513  0.00572840  0.08777939    -0.90300
C85         C  0.04279609  0.81620042  0.01419344     0.83600
O86         O  0.02853893  0.02386411  0.09543227    -0.68500
O87         O  0.48190804  0.91803905  0.41442383    -0.87800
C88         C  0.49783046  0.97189170  0.09379846     0.84500
C89         C  0.11310053  0.95495715  0.09464904     1.06000
H90         H  0.48634277  0.92550766  0.99966682     0.37800
O91         O  0.01065827  0.92966185  0.49021640    -1.10400
O92         O  0.06941659  0.98580983  0.43807554    -0.67100
Ni93       Ni  0.02511019  0.00252357  0.47737029     1.26300
O94         O  0.50688550  0.93270298  0.07015296    -0.67300
O95         O  0.49094753  0.00532305  0.43287048    -0.79600
C96         C  0.03859399  0.11429511  0.99890035     0.83800
O97         O  0.03885532  0.07751223  0.46959177    -0.66800
Ni98       Ni  0.51709513  0.87394592  0.44655929     1.27400
Ni99       Ni  0.05359063  0.92492550  0.03221329     1.26100
H100        H  0.09773732  0.99455663  0.00647074     0.38400
C101        C  0.18823334  0.92954417  0.37203866    -0.27000
C102        C  0.18046904  0.92733637  0.33044886    -0.15100
C103        C  0.13978411  0.93736866  0.31761603     0.35600
C104        C  0.10739844  0.94668663  0.34641196    -0.26500
C105        C  0.11486184  0.94628524  0.38795565    -0.15700
C106        C  0.15588828  0.93884955  0.40079519     0.36600
N107        N  0.16504770  0.93766708  0.44288398    -0.89900
H108        H  0.21927728  0.92141803  0.38230161     0.17800
H109        H  0.07585111  0.95152899  0.33633776     0.17700
N110        N  0.13054646  0.93428521  0.27560600    -0.89000
H111        H  0.14735208  0.90681215  0.45671468     0.35100
H112        H  0.15589516  0.97457756  0.45586484     0.40200
H113        H  0.11770015  0.97120459  0.26722852     0.39800
H114        H  0.10802083  0.90408349  0.27194089     0.34700
C115        C  0.13089263  0.88857603  0.14786518    -0.27000
C116        C  0.14092745  0.93637470  0.12666756    -0.15100
C117        C  0.17543253  0.96767254  0.13866876     0.35600
C118        C  0.19809120  0.95178438  0.17206025    -0.26500
C119        C  0.18740824  0.90482154  0.19366413    -0.15700
C120        C  0.15362286  0.87278508  0.18130106     0.36600
N121        N  0.14123248  0.82540224  0.20356221    -0.89900
H122        H  0.10430269  0.86428112  0.13946923     0.17800
H123        H  0.22452170  0.97611055  0.18086003     0.17700
N124        N  0.18797389  0.01534502  0.11683937    -0.89000
H125        H  0.14240674  0.79232713  0.18371756     0.35100
H126        H  0.11029989  0.83026643  0.21375283     0.40200
H127        H  0.21880959  0.01027559  0.10639257     0.39800
H128        H  0.18717475  0.04805628  0.13703439     0.34700
C129        C  0.40865689  0.95361089  0.37602170    -0.27000
C130        C  0.44511010  0.98444524  0.37996469    -0.15100
C131        C  0.45384910  0.02685173  0.35232707     0.35600
C132        C  0.42657044  0.03652287  0.32105248    -0.26500
C133        C  0.39057635  0.00476765  0.31655439    -0.15700
C134        C  0.38123171  0.96360760  0.34505220     0.36600
N135        N  0.34375393  0.93216089  0.34411506    -0.89900
H136        H  0.40141016  0.92130974  0.39726121     0.17800
H137        H  0.43386716  0.06860886  0.29965542     0.17700
N138        N  0.98369846  0.06690235  0.36045092    -0.89000
H139        H  0.34500598  0.90839005  0.31808766     0.35100
H140        H  0.31831913  0.95830922  0.34316973     0.40200
H141        H  0.01028270  0.04262699  0.35902291     0.39800
H142        H  0.98166854  0.08622608  0.38860422     0.34700
C143        C  0.46902477  0.96100132  0.16390156    -0.27000
C144        C  0.46194566  0.96692000  0.12252426    -0.15100
C145        C  0.42134226  0.97663255  0.10992030     0.35600
C146        C  0.38890676  0.98419583  0.13894188    -0.26500
C147        C  0.39639305  0.98207817  0.18058160    -0.15700
C148        C  0.43654312  0.96816429  0.19301459     0.36600
N149        N  0.44523542  0.96501865  0.23511821    -0.89900
H150        H  0.50034001  0.95360134  0.17376105     0.17800
H151        H  0.35817634  0.99462747  0.12895311     0.17700
N152        N  0.41349697  0.98195541  0.06774283    -0.89000
H153        H  0.46865880  0.99317923  0.24123337     0.35100
H154        H  0.45674123  0.92637639  0.24078805     0.40200
H155        H  0.40129259  0.02049330  0.06307449     0.39800
H156        H  0.39078227  0.95341070  0.06036021     0.34700
C157        C  0.24486216  0.67946620  0.28475437    -0.27000
C158        C  0.28592393  0.66158641  0.28043596    -0.15100
C159        C  0.31854756  0.70025486  0.27669382     0.35600
C160        C  0.30886856  0.75582038  0.27522825    -0.26500
C161        C  0.26720565  0.77390660  0.27680157    -0.15700
C162        C  0.23516910  0.73453562  0.28266624     0.36600
N163        N  0.19221348  0.75016104  0.28488030    -0.89900
H164        H  0.21966875  0.65010978  0.28729108     0.17800
H165        H  0.33446185  0.78405631  0.27183076     0.17700
N166        N  0.36163706  0.68471447  0.27356786    -0.89000
H167        H  0.17914436  0.73652986  0.31240609     0.35100
H168        H  0.17684988  0.73063936  0.26148340     0.40200
H169        H  0.36493729  0.64283856  0.27595608     0.39800
H170        H  0.37648754  0.70149708  0.29839302     0.34700
C171        C  0.31189989  0.16736476  0.20556952    -0.27000
C172        C  0.30270930  0.13226584  0.23845704    -0.15100
C173        C  0.27974109  0.15390697  0.27200607     0.35600
C174        C  0.27067914  0.20943509  0.27396905    -0.26500
C175        C  0.28351420  0.24515390  0.24288046    -0.15700
C176        C  0.30273707  0.22310475  0.20760873     0.36600
N177        N  0.31440720  0.25725685  0.17415995    -0.89900
H178        H  0.32731199  0.15308785  0.17819244     0.17800
H179        H  0.25470848  0.22485527  0.30098162     0.17700
N180        N  0.26699766  0.11988591  0.30523404    -0.89000
H181        H  0.29956409  0.24275034  0.14857566     0.35100
H182        H  0.34657716  0.25399691  0.16882437     0.40200
H183        H  0.23458312  0.12211163  0.30886596     0.39800
H184        H  0.28008628  0.13524094  0.33148818     0.34700
C185        C  0.41169755  0.51280117  0.37933407    -0.27000
C186        C  0.38226074  0.47145632  0.38624208    -0.15100
C187        C  0.38135506  0.44426071  0.42364676     0.35600
C188        C  0.40779872  0.46091322  0.45405606    -0.23500
C189        C  0.43638149  0.50362168  0.44802095    -0.15700
C190        C  0.43951649  0.52797913  0.40932006     0.36600
N191        N  0.47177480  0.56647679  0.39956278    -0.89900
H192        H  0.41385941  0.53255659  0.35012201     0.17800
H193        H  0.40435571  0.44102862  0.48303125     0.17700
N194        N  0.35285846  0.40048682  0.43157038    -0.89000
H195        H  0.45775865  0.60222917  0.39025553     0.35100
H196        H  0.98293081  0.55992897  0.37516985     0.40200
H197        H  0.33520815  0.41001744  0.45775823     0.39800
H198        H  0.37027114  0.36605340  0.43779359     0.34700
C199        C  0.43252111  0.45722802  0.11601067    -0.27000
C200        C  0.42633913  0.49231758  0.08341889    -0.15100
C201        C  0.38675426  0.51552444  0.07879672     0.35600
C202        C  0.35491394  0.50483566  0.10696325    -0.26500
C203        C  0.36129299  0.47291684  0.14114847    -0.15700
C204        C  0.40010491  0.44702256  0.14511684     0.36600
N205        N  0.40720445  0.41317884  0.17940486    -0.89900
H206        H  0.46300259  0.43960800  0.11956086     0.17800
H207        H  0.32503007  0.52392096  0.10282072     0.17700
N208        N  0.37806811  0.55197870  0.04664317    -0.89000
H209        H  0.43791839  0.39927134  0.17850646     0.35100
H210        H  0.38822405  0.37888593  0.17682233     0.40200
H211        H  0.38252268  0.53178094  0.01917653     0.39800
H212        H  0.39839633  0.58498232  0.04767387     0.34700
C213        C  0.05784181  0.66394245  0.01982603    -0.27000
C214        C  0.51860622  0.63985230  0.02752716    -0.15100
C215        C  0.49095320  0.68069209  0.04240823     0.35600
C216        C  0.50225367  0.73535298  0.03983700    -0.26500
C217        C  0.03659391  0.75843585  0.02352670    -0.15700
C218        C  0.06826356  0.71931174  0.01782475     0.36600
N219        N  0.10562420  0.73355740  0.51057990    -0.89900
H220        H  0.07964237  0.63351668  0.51667452     0.17800
H221        H  0.48040022  0.76564443  0.05107822     0.17700
N222        N  0.44995420  0.66758624  0.05782019    -0.89000
H223        H  0.11462502  0.75937139  0.53391292     0.35100
H224        H  0.10685352  0.75533081  0.48353086     0.40200
H225        H  0.42834730  0.68700950  0.03997152     0.39800
H226        H  0.44669787  0.68293715  0.08728080     0.34700
C227        C  0.18151235  0.43318141  0.44932829    -0.27000
C228        C  0.14069791  0.43660129  0.43620587    -0.15100
C229        C  0.13365169  0.44866682  0.39524594     0.35600
C230        C  0.16762379  0.45333389  0.36765714    -0.26500
C231        C  0.20828657  0.44437846  0.38020922    -0.15700
C232        C  0.21521681  0.43608343  0.42170169     0.36600
N233        N  0.25616649  0.42866340  0.43637505    -0.89900
H234        H  0.18713092  0.42368177  0.48066468     0.17800
H235        H  0.16207050  0.46047047  0.33597308     0.17700
N236        N  0.09236313  0.45487631  0.38086936    -0.89000
H237        H  0.27443114  0.46207508  0.42764771     0.35100
H238        H  0.26880939  0.39386328  0.42290287     0.40200
H239        H  0.07755705  0.48530137  0.39799345     0.39800
H240        H  0.07587502  0.41874339  0.38556877     0.34700
C241        C  0.17542216  0.38340397  0.07367612    -0.27000
C242        C  0.14067585  0.41605583  0.06699372    -0.15100
C243        C  0.13142186  0.45884969  0.09398268     0.35600
C244        C  0.15691308  0.46848750  0.12691124    -0.26500
C245        C  0.19152104  0.43566757  0.13401311    -0.15700
C246        C  0.20092702  0.39275615  0.10662652     0.36600
N247        N  0.23683810  0.35924805  0.11051405    -0.89900
H248        H  0.18295715  0.35051531  0.05293058     0.17800
H249        H  0.14926608  0.50168379  0.14733614     0.17700
N250        N  0.09531706  0.49153906  0.08895305    -0.89000
H251        H  0.23392979  0.33791914  0.13768642     0.35100
H252        H  0.26333594  0.38402560  0.11105626     0.40200
H253        H  0.10502442  0.53190458  0.08652073     0.39800
H254        H  0.07614470  0.48799191  0.11500430     0.34700
C255        C  0.05681025  0.25594476  0.95540486    -0.27000
C256        C  0.05012989  0.28836857  0.99029105    -0.15100
C257        C  0.03163764  0.26351195  0.02493636     0.35600
C258        C  0.02577608  0.20723851  0.02588419    -0.26500
C259        C  0.03786358  0.17412504  0.99281671    -0.15700
C260        C  0.05179954  0.19960219  0.95650317     0.36600
N261        N  0.06284116  0.16971602  0.92055351    -0.89900
H262        H  0.06765379  0.27292742  0.92702574     0.17800
H263        H  0.50819495  0.18423349  0.05312741     0.17700
N264        N  0.01378333  0.29269560  0.55773813    -0.89000
H265        H  0.03841066  0.14323570  0.41111607     0.35100
H266        H  0.08711505  0.13773617  0.42991739     0.40200
H267        H  0.03722805  0.28014573  0.08446428     0.39800
H268        H  0.48459590  0.28498140  0.06488444     0.34700
C269        C  0.06684166  0.34670457  0.99311707     0.85800
C270        C  0.09388371  0.34779604  0.52950835    -0.54400
C271        C  0.10910747  0.39847886  0.53589629     0.08700
C272        C  0.09517589  0.44026821  0.50492282     0.19700
C273        C  0.03160310  0.38655376  0.50109117    -0.55200
C274        C  0.04704157  0.43805108  0.50729267     0.08800
C275        C  0.09119592  0.36914261  0.95589541    -0.54700
C276        C  0.10662982  0.42001127  0.96106450     0.09400
H277        H  0.10126663  0.31391691  0.54880938     0.13900
H278        H  0.10962816  0.48051455  0.50945604    -0.00300
H279        H  0.99883186  0.37625049  0.50114318     0.14200
H280        H  0.09941445  0.34652697  0.92875897     0.14000
C281        C  0.50448512  0.58105347  0.52427797     0.85800
C282        C  0.47826985  0.56096940  0.56090794    -0.54400
C283        C  0.46169546  0.51068689  0.55617066     0.08700
C284        C  0.47528358  0.48276122  0.51629561     0.19700
C285        C  0.03504177  0.53885375  0.51909832    -0.55200
C286        C  0.01997700  0.48685131  0.51468675     0.08800
C287        C  0.47482093  0.57416164  0.98922990    -0.54700
C288        C  0.45979782  0.52299292  0.98359574     0.09400
H289        H  0.47082172  0.58568792  0.58737755     0.13900
H290        H  0.46224520  0.44157358  0.51420162    -0.00300
H291        H  0.06787996  0.54806830  0.51870254     0.14200
H292        H  0.46631531  0.60829409  0.97078067     0.14000
O293        O  0.29826330  0.58771659  0.73117021    -0.81600
O294        O  0.28918827  0.34151263  0.72122570    -0.66300
O295        O  0.26002603  0.48823185  0.74558069    -1.12900
C296        C  0.34921296  0.46253310  0.85502829     1.05300
O297        O  0.27207476  0.32176720  0.78440264    -0.79500
O298        O  0.25480740  0.39557759  0.84215873    -0.67100
Ni299      Ni  0.25858249  0.54192972  0.70497694     1.34900
C300        C  0.23967745  0.44262136  0.84601111     0.84000
O301        O  0.23769174  0.41268524  0.68604349    -0.80000
O302        O  0.21922299  0.49940725  0.67609004    -0.90300
C303        C  0.28230165  0.30638082  0.74871323     0.83600
O304        O  0.30239084  0.51554374  0.67069276    -0.68500
O305        O  0.33777434  0.41300160  0.85251862    -0.87800
C306        C  0.32593621  0.47451008  0.67039958     0.84500
C307        C  0.21680083  0.44885618  0.66805779     1.06000
H308        H  0.33924938  0.42068543  0.76561154     0.37800
O309        O  0.31064123  0.42238955  0.77560227    -1.10400
O310        O  0.25413373  0.48377756  0.82739603    -0.67100
Ni311      Ni  0.29872533  0.49627994  0.78804614     1.26300
O312        O  0.32075096  0.43511831  0.69474218    -0.67300
O313        O  0.33786664  0.49946632  0.83070839    -0.79600
C314        C  0.29185188  0.60512447  0.76691453     0.83800
O315        O  0.28684033  0.57199067  0.79598612    -0.66800
Ni316      Ni  0.30488042  0.36957639  0.81696975     1.27400
Ni317      Ni  0.27455144  0.41590900  0.73098245     1.26100
H318        H  0.23215891  0.48675128  0.75750834     0.38400
C319        C  0.32380268  0.07688283  0.73727921     0.85800
C320        C  0.35331621  0.05804856  0.70241339    -0.54400
C321        C  0.36918128  0.00759617  0.70743832     0.08700
C322        C  0.35388192  0.97951767  0.74674276     0.19700
C323        C  0.29043607  0.03194913  0.74034670    -0.55200
C324        C  0.30561464  0.98054505  0.74573016     0.08800
C325        C  0.34972248  0.07014741  0.77522803    -0.54700
C326        C  0.36488419  0.01945566  0.78067111     0.09400
H327        H  0.36345468  0.08235209  0.67677003     0.13900
H328        H  0.36821479  0.93927261  0.75031609    -0.00300
H329        H  0.25771580  0.04146416  0.73865082     0.14200
H330        H  0.35570328  0.10309212  0.79617936     0.14000
C331        C  0.25797301  0.83675895  0.76540915     0.85800
C332        C  0.22799082  0.84325784  0.73070059    -0.54400
C333        C  0.21315806  0.89427152  0.72628662     0.08700
C334        C  0.22977045  0.93503413  0.75721657     0.19700
C335        C  0.29237419  0.87963242  0.75614372    -0.55200
C336        C  0.27784964  0.93170196  0.75234652     0.08800
C337        C  0.23473788  0.85936759  0.80316657    -0.54700
C338        C  0.21871135  0.90999104  0.79881624     0.09400
H339        H  0.22006193  0.81015783  0.71056583     0.13900
H340        H  0.21672458  0.97592792  0.75389171    -0.00300
H341        H  0.32503691  0.87000057  0.75312275     0.14200
H342        H  0.22919078  0.83556122  0.83037162     0.14000
O343        O  0.02581136  0.09339254  0.53411157    -0.81600
O344        O  0.03254243  0.84817706  0.54288344    -0.66300
O345        O  0.06339854  0.99409568  0.51989357    -1.12900
C346        C  0.47335101  0.96814047  0.91131370     1.05300
O347        O  0.05224695  0.82977241  0.97795371    -0.79500
O348        O  0.07130310  0.90383507  0.92061135    -0.67100
Ni349      Ni  0.06427125  0.04768328  0.56109007     1.34900
C350        C  0.08879287  0.94982550  0.91746226     0.84000
O351        O  0.08619168  0.91795671  0.57752483    -0.80000
O352        O  0.10263042  0.00519166  0.59032425    -0.90300
C353        C  0.03727280  0.81306596  0.51498863     0.83600
O354        O  0.01947704  0.02219832  0.59525537    -0.68500
O355        O  0.48005837  0.91745343  0.91489927    -0.87800
C356        C  0.50397730  0.97851655  0.59243438     0.84500
C357        C  0.10655795  0.95448155  0.59636162     1.06000
H358        H  0.48873076  0.92783054  0.49902197     0.37800
O359        O  0.01738707  0.93264416  0.98795779    -1.10400
O360        O  0.07578150  0.99191954  0.93619386    -0.67100
Ni361      Ni  0.03141276  0.00603880  0.97605447     1.26300
O362        O  0.50992373  0.93910953  0.56822396    -0.67300
O363        O  0.48995676  0.00455554  0.93325592    -0.79600
C364        C  0.03253282  0.11099010  0.49843555     0.83800
O365        O  0.04437740  0.08143988  0.96954934    -0.66800
Ni366      Ni  0.51620220  0.87366860  0.94627535     1.27400
Ni367      Ni  0.04813363  0.92198102  0.53361769     1.26100
H368        H  0.09132311  0.99289856  0.50819637     0.38400
C369        C  0.19592999  0.92482811  0.87114030    -0.27000
C370        C  0.18886061  0.93335071  0.82985129    -0.15100
C371        C  0.15057278  0.95636769  0.81901884     0.35600
C372        C  0.11946773  0.96662323  0.84900377    -0.26500
C373        C  0.12548170  0.95346356  0.88956526    -0.15700
C374        C  0.16453135  0.93380946  0.90081982     0.36600
N375        N  0.17242617  0.92049228  0.94197868    -0.89900
H376        H  0.22528611  0.90806874  0.88020718     0.17800
H377        H  0.08934792  0.98114612  0.84007898     0.17700
N378        N  0.14166210  0.96554310  0.77747632    -0.89000
H379        H  0.15115077  0.89064685  0.95159609     0.35100
H380        H  0.16728936  0.95510754  0.95972867     0.40200
H381        H  0.13444913  0.00647414  0.77415969     0.39800
H382        H  0.11536609  0.94267214  0.77040523     0.34700
C383        C  0.12604746  0.89138040  0.65108507    -0.27000
C384        C  0.13530028  0.93785798  0.62811533    -0.15100
C385        C  0.17010065  0.97006016  0.63801602     0.35600
C386        C  0.19468736  0.95541977  0.67040192    -0.26500
C387        C  0.18536180  0.90910985  0.69327846    -0.15700
C388        C  0.15043689  0.87716814  0.68379439     0.36600
N389        N  0.13869878  0.83148808  0.70825549    -0.89900
H390        H  0.09891304  0.86695468  0.64457211     0.17800
H391        H  0.22164298  0.98000334  0.67725384     0.17700
N392        N  0.18104274  0.01729561  0.61492482    -0.89000
H393        H  0.13812655  0.79725310  0.68956509     0.35100
H394        H  0.10848510  0.83786618  0.72002304     0.40200
H395        H  0.21141467  0.01248349  0.60310807     0.39800
H396        H  0.18089489  0.05056002  0.63460803     0.34700
C397        C  0.40829863  0.95393570  0.87435425    -0.27000
C398        C  0.44466138  0.98460376  0.87958529    -0.15100
C399        C  0.45410427  0.02750391  0.85254597     0.35600
C400        C  0.42741122  0.03826595  0.82099679    -0.26500
C401        C  0.39173923  0.00642606  0.81500259    -0.15700
C402        C  0.38179083  0.96446649  0.84265802     0.36600
N403        N  0.34455233  0.93275308  0.84012479    -0.89900
H404        H  0.40047919  0.92121470  0.89504673     0.17800
H405        H  0.43509822  0.07111570  0.80038695     0.17700
N406        N  0.99361360  0.06448627  0.85192428    -0.89000
H407        H  0.34654299  0.90988639  0.81363784     0.35100
H408        H  0.31904270  0.95876106  0.83902946     0.40200
H409        H  0.01919607  0.03854941  0.84937721     0.39800
H410        H  0.99428869  0.08447378  0.87976805     0.34700
C411        C  0.47717150  0.98288617  0.66329054    -0.27000
C412        C  0.46898793  0.97589411  0.62223979    -0.15100
C413        C  0.42750287  0.97161027  0.61014045     0.35600
C414        C  0.39473989  0.97791519  0.63902446    -0.26500
C415        C  0.40298877  0.98753485  0.67988592    -0.15700
C416        C  0.44452517  0.98838751  0.69218298     0.36600
N417        N  0.45377927  0.99827981  0.73358740    -0.89900
H418        H  0.50910072  0.98597991  0.67277580     0.17800
H419        H  0.36285433  0.97795831  0.62925755     0.17700
N420        N  0.41862653  0.96422728  0.56830614    -0.89000
H421        H  0.47226944  0.03319146  0.73489415     0.35100
H422        H  0.47126148  0.96578683  0.74377108     0.40200
H423        H  0.40078995  0.99700759  0.55920378     0.39800
H424        H  0.40055981  0.92911516  0.56569575     0.34700
C425        C  0.24719486  0.68324168  0.78378655    -0.27000
C426        C  0.28685131  0.66396925  0.77315719    -0.15100
C427        C  0.31845637  0.70107354  0.76171126     0.35600
C428        C  0.30998900  0.75701844  0.76120832    -0.26500
C429        C  0.26955634  0.77677212  0.77028661    -0.15700
C430        C  0.23794737  0.73850489  0.78136402     0.36600
N431        N  0.19567092  0.75531154  0.78854840    -0.89900
H432        H  0.22232880  0.65476958  0.79132677     0.17800
H433        H  0.33497551  0.78392045  0.75173463     0.17700
N434        N  0.35905750  0.68188609  0.74979027    -0.89000
H435        H  0.18619435  0.74328991  0.81772817     0.35100
H436        H  0.17699638  0.73512293  0.76793467     0.40200
H437        H  0.38063462  0.69992634  0.76871825     0.39800
H438        H  0.36578028  0.69493540  0.72023082     0.34700
C439        C  0.31616674  0.17052165  0.70302382    -0.27000
C440        C  0.30610373  0.13468321  0.73520052    -0.15100
C441        C  0.28174394  0.15515874  0.76823526     0.35600
C442        C  0.27234803  0.21048919  0.77068630    -0.26500
C443        C  0.28621046  0.24704051  0.74057307    -0.15700
C444        C  0.30667177  0.22608464  0.70554967     0.36600
N445        N  0.31933132  0.26116926  0.67296180    -0.89900
H446        H  0.33256848  0.15696788  0.67595387     0.17800
H447        H  0.25532949  0.22509196  0.79737058     0.17700
N448        N  0.26794012  0.12014497  0.80050946    -0.89000
H449        H  0.30543250  0.24726385  0.64668518     0.35100
H450        H  0.35164118  0.25818896  0.66859925     0.40200
H451        H  0.23543408  0.12198501  0.80299033     0.39800
H452        H  0.27990110  0.13488885  0.82747753     0.34700
C453        C  0.40696839  0.51877187  0.88146644    -0.27000
C454        C  0.37742512  0.47744216  0.88792266    -0.15100
C455        C  0.37637670  0.44982508  0.92527793     0.35600
C456        C  0.40306190  0.46572245  0.95577226    -0.23500
C457        C  0.43237738  0.50749305  0.94970523    -0.15700
C458        C  0.43520101  0.53280300  0.91133855     0.36600
N459        N  0.46777457  0.57088288  0.90163995    -0.89900
H460        H  0.40928765  0.53900768  0.85244866     0.17800
H461        H  0.39982868  0.44549000  0.98465549     0.17700
N462        N  0.34803553  0.40580976  0.93287950    -0.89000
H463        H  0.45404377  0.60713577  0.89298494     0.35100
H464        H  0.99265420  0.55114846  0.87222246     0.40200
H465        H  0.33034935  0.41486050  0.95914891     0.39800
H466        H  0.36555650  0.37135421  0.93877952     0.34700
C467        C  0.43246120  0.46131886  0.61664275    -0.27000
C468        C  0.42591377  0.49270014  0.58212104    -0.15100
C469        C  0.38568010  0.51296345  0.57550254     0.35600
C470        C  0.35342991  0.50262802  0.60343552    -0.26500
C471        C  0.36012640  0.47426233  0.63925562    -0.15700
C472        C  0.39980337  0.45212003  0.64547197     0.36600
N473        N  0.40765004  0.42304406  0.68176754    -0.89900
H474        H  0.46337451  0.44625620  0.62219638     0.17800
H475        H  0.32300705  0.51929721  0.59779751     0.17700
N476        N  0.37677520  0.54645536  0.54167743    -0.89000
H477        H  0.43149831  0.44308181  0.69668643     0.35100
H478        H  0.41835033  0.38450842  0.67355246     0.40200
H479        H  0.38250749  0.52448756  0.51520544     0.39800
H480        H  0.39620569  0.58044320  0.54176968     0.34700
C481        C  0.05423452  0.66133558  0.52166953    -0.27000
C482        C  0.51794066  0.64088561  0.52746623    -0.15100
C483        C  0.48838606  0.68139241  0.53863738     0.35600
C484        C  0.49943707  0.73631762  0.53714830    -0.26500
C485        C  0.03120003  0.75518692  0.52395503    -0.15700
C486        C  0.06340779  0.71694235  0.51889627     0.36600
N487        N  0.11105217  0.73406305  0.00925336    -0.89900
H488        H  0.08261922  0.63546938  0.01389728     0.17800
H489        H  0.47596875  0.76636023  0.54493615     0.17700
N490        N  0.44613860  0.66740478  0.54948851    -0.89000
H491        H  0.12865217  0.71901675  0.03271282     0.35100
H492        H  0.11527416  0.77598661  0.00965533     0.40200
H493        H  0.42662497  0.68622449  0.52919275     0.39800
H494        H  0.43923767  0.68285261  0.57843099     0.34700
C495        C  0.17971589  0.44153114  0.94541559    -0.27000
C496        C  0.13873130  0.44149709  0.93259754    -0.15100
C497        C  0.13076681  0.45079125  0.89138076     0.35600
C498        C  0.16428444  0.45527492  0.86326330    -0.26500
C499        C  0.20527848  0.44958198  0.87583583    -0.15700
C500        C  0.21292993  0.44460124  0.91741247     0.36600
N501        N  0.25423774  0.43971438  0.93174127    -0.89900
H502        H  0.18603849  0.43425189  0.97693966     0.17800
H503        H  0.15826608  0.45994244  0.83140867     0.17700
N504        N  0.08913981  0.45478706  0.87740454    -0.89000
H505        H  0.27160562  0.47336241  0.92185735     0.35100
H506        H  0.26742868  0.40483739  0.91890493     0.40200
H507        H  0.07400031  0.48568121  0.89375142     0.39800
H508        H  0.07335151  0.41847224  0.88340636     0.34700
C509        C  0.17195675  0.37970490  0.57565046    -0.27000
C510        C  0.13643122  0.41120026  0.56990784    -0.15100
C511        C  0.12663957  0.45324428  0.59731989     0.35600
C512        C  0.15267916  0.46364619  0.62967921    -0.26500
C513        C  0.18854097  0.43254415  0.63549439    -0.15700
C514        C  0.19815895  0.38997727  0.60786495     0.36600
N515        N  0.23501203  0.35794428  0.61060428    -0.89900
H516        H  0.17976915  0.34737954  0.55449558     0.17800
H517        H  0.14472305  0.49638009  0.65042059     0.17700
N518        N  0.08970773  0.48463104  0.59300886    -0.89000
H519        H  0.23350345  0.33650998  0.63778982     0.35100
H520        H  0.26096181  0.38373854  0.61029075     0.40200
H521        H  0.09847763  0.52533157  0.59042271     0.39800
H522        H  0.07113568  0.48038873  0.61939971     0.34700
C523        C  0.05704078  0.25157633  0.45576099    -0.27000
C524        C  0.04806003  0.28465972  0.48990195    -0.15100
C525        C  0.02666538  0.26060170  0.52337004     0.35600
C526        C  0.01961647  0.20452659  0.52411169    -0.26500
C527        C  0.03337817  0.17075787  0.49202202    -0.15700
C528        C  0.05068713  0.19541037  0.45668955     0.36600
N529        N  0.06394114  0.16474144  0.42175664    -0.89900
H530        H  0.07071456  0.26779697  0.42822440     0.17800
H531        H  0.50853451  0.18578526  0.54741437     0.17700
N532        N  0.02071861  0.29502377  0.06018977    -0.89000
H533        H  0.03691871  0.14732980  0.91192421     0.35100
H534        H  0.08732845  0.14361271  0.92664179     0.40200
H535        H  0.02810236  0.27747628  0.58322450     0.39800
H536        H  0.48444108  0.28644476  0.55817335     0.34700
C537        C  0.56831446  0.34195526  0.49043746     0.85800
C538        C  0.59481942  0.34616051  0.02949670    -0.54400
C539        C  0.61008775  0.39702214  0.03500623     0.08700
C540        C  0.59612557  0.43783717  0.00342749     0.19700
C541        C  0.53244300  0.38420407  0.00073628    -0.55200
C542        C  0.54809809  0.43577099  0.00596236     0.08800
C543        C  0.59401424  0.36526301  0.45439603    -0.54700
C544        C  0.60910881  0.41615581  0.46066151     0.09400
H545        H  0.60226235  0.31284258  0.04930193     0.13900
H546        H  0.61080340  0.47805842  0.00719974    -0.00300
H547        H  0.49959820  0.37414048  0.00129104     0.14200
H548        H  0.60234286  0.34363637  0.42686365     0.14000
C549        C  0.00336530  0.58647729  0.02288673     0.85800
C550        C  0.97528131  0.56698619  0.05843238    -0.54400
C551        C  0.95898966  0.51657729  0.05338020     0.08700
C552        C  0.97416466  0.48832734  0.01425534     0.19700
C553        C  0.53741893  0.53650675  0.01730946    -0.55200
C554        C  0.52159623  0.48491898  0.01306908     0.08800
C555        C  0.97359364  0.57427777  0.48762214    -0.54700
C556        C  0.95914018  0.52276581  0.48216753     0.09400
H557        H  0.96660009  0.59227292  0.08428965     0.13900
H558        H  0.96094437  0.44729673  0.01153718    -0.00300
H559        H  0.57032536  0.54551435  0.01666813     0.14200
H560        H  0.96542494  0.60791213  0.46860115     0.14000
O561        O  0.79810190  0.58821876  0.23036190    -0.81600
O562        O  0.78873734  0.34177768  0.21952417    -0.66300
O563        O  0.76025706  0.48831670  0.24483902    -1.12900
C564        C  0.84957899  0.46077526  0.35322616     1.05300
O565        O  0.77065565  0.32174238  0.28250553    -0.79500
O566        O  0.75353380  0.39597800  0.34029455    -0.67100
Ni567      Ni  0.75804446  0.54243925  0.20465462     1.34900
C568        C  0.73983093  0.44368269  0.34477405     0.84000
O569        O  0.73768307  0.41352466  0.18497156    -0.80000
O570        O  0.71838814  0.50007213  0.17610989    -0.90300
C571        C  0.78086005  0.30654981  0.24674377     0.83600
O572        O  0.80118915  0.51628868  0.16952435    -0.68500
O573        O  0.83676067  0.41176007  0.35120846    -0.87800
C574        C  0.82479826  0.47529527  0.16839494     0.84500
C575        C  0.71660523  0.44969529  0.16734820     1.06000
H576        H  0.83923538  0.41911941  0.26408315     0.37800
O577        O  0.81068980  0.42158708  0.27407540    -1.10400
O578        O  0.75563608  0.48441263  0.32674355    -0.67100
Ni579      Ni  0.79968044  0.49552942  0.28667914     1.26300
O580        O  0.82038907  0.43589241  0.19294061    -0.67300
O581        O  0.83932807  0.49776378  0.32854851    -0.79600
C582        C  0.79303044  0.60460857  0.26654135     0.83800
O583        O  0.78872603  0.57098355  0.29525110    -0.66800
Ni584      Ni  0.80362444  0.36896531  0.31545818     1.27400
Ni585      Ni  0.77451679  0.41613871  0.22964224     1.26100
H586        H  0.73257978  0.48669068  0.25720338     0.38400
C587        C  0.81974272  0.07694589  0.23723891     0.85800
C588        C  0.85106144  0.05828210  0.20383828    -0.54400
C589        C  0.86781725  0.00876302  0.21015799     0.08700
C590        C  0.85159236  0.98108558  0.24929370     0.19700
C591        C  0.78728815  0.03073715  0.23972271    -0.55200
C592        C  0.80348407  0.98014665  0.24659535     0.08800
C593        C  0.84401848  0.07215957  0.27641849    -0.54700
C594        C  0.86011525  0.02225109  0.28312089     0.09400
H595        H  0.86171580  0.08195435  0.17807454     0.13900
H596        H  0.86670920  0.94158928  0.25407101    -0.00300
H597        H  0.75444358  0.03872051  0.23681040     0.14200
H598        H  0.84828715  0.10580483  0.29719040     0.14000
C599        C  0.75869316  0.83495586  0.26679206     0.85800
C600        C  0.73092745  0.83976136  0.23024985    -0.54400
C601        C  0.71496304  0.88985440  0.22472191     0.08700
C602        C  0.72860790  0.93170431  0.25621875     0.19700
C603        C  0.79248133  0.87901195  0.25869536    -0.55200
C604        C  0.77684028  0.93041251  0.25351375     0.08800
C605        C  0.73293722  0.85704722  0.30320474    -0.54700
C606        C  0.71638577  0.90679934  0.29738317     0.09400
H607        H  0.72564273  0.80623488  0.20964549     0.13900
H608        H  0.71402253  0.97170986  0.25234585    -0.00300
H609        H  0.82538835  0.87045758  0.25682201     0.14200
H610        H  0.72588296  0.83358930  0.33033066     0.14000
O611        O  0.52636976  0.09016596  0.03472516    -0.81600
O612        O  0.53868705  0.84396273  0.03929891    -0.66300
O613        O  0.56540205  0.99185042  0.01999331    -1.12900
C614        C  0.96873877  0.97144792  0.41343764     1.05300
O615        O  0.55156339  0.82510808  0.47620492    -0.79500
O616        O  0.56505944  0.89851459  0.41657542    -0.67100
Ni617      Ni  0.56398849  0.04388168  0.06236319     1.34900
C618        C  0.58412695  0.94353444  0.41379855     0.84000
O619        O  0.59071797  0.91404115  0.07461529    -0.80000
O620        O  0.60187437  0.00116010  0.09216088    -0.90300
C621        C  0.54436656  0.80976733  0.01097892     0.83600
O622        O  0.51801152  0.01612665  0.09405789    -0.68500
O623        O  0.97524971  0.92064849  0.41689414    -0.87800
C624        C  0.00402864  0.98341546  0.09470371     0.84500
C625        C  0.60878302  0.95052526  0.09539180     1.06000
H626        H  0.98886597  0.93211306  0.99825398     0.37800
O627        O  0.51687115  0.92770528  0.48769311    -1.10400
O628        O  0.57431224  0.98512768  0.43482397    -0.67100
Ni629      Ni  0.53063301  0.00084308  0.47483687     1.26300
O630        O  0.00827263  0.94512848  0.06905893    -0.67300
O631        O  0.98605201  0.00761972  0.43498814    -0.79600
C632        C  0.53378540  0.10827003  0.99926197     0.83800
O633        O  0.54373292  0.07605558  0.46689681    -0.66800
Ni634      Ni  0.01049988  0.87613025  0.44889820     1.27400
Ni635      Ni  0.55215451  0.91850236  0.03169287     1.26100
H636        H  0.59357516  0.99251117  0.00889038     0.38400
C637        C  0.69246517  0.94323505  0.36483648    -0.27000
C638        C  0.68316226  0.92817279  0.32510680    -0.15100
C639        C  0.64128676  0.92560109  0.31392680     0.35600
C640        C  0.60939087  0.93469592  0.34303297    -0.26500
C641        C  0.61851364  0.94670837  0.38325697    -0.15700
C642        C  0.66047582  0.95307115  0.39392616     0.36600
N643        N  0.67135441  0.96647069  0.43442704    -0.89900
H644        H  0.72464878  0.94508370  0.37365395     0.17800
H645        H  0.57723543  0.92973065  0.33460388     0.17700
N646        N  0.63092921  0.91015991  0.27369979    -0.89000
H647        H  0.65866524  0.93705174  0.45393361     0.35100
H648        H  0.65786218  0.00372203  0.44204804     0.40200
H649        H  0.61308029  0.94101184  0.26157975     0.39800
H650        H  0.61251767  0.87514567  0.27546018     0.34700
C651        C  0.63206794  0.88348823  0.14542643    -0.27000
C652        C  0.63835883  0.93339613  0.12600890    -0.15100
C653        C  0.67114566  0.96756138  0.13804736     0.35600
C654        C  0.69588115  0.95221388  0.17003198    -0.26500
C655        C  0.68867124  0.90324610  0.19032511    -0.15700
C656        C  0.65661044  0.86835654  0.17766045     0.36600
N657        N  0.64761748  0.81866434  0.19845334    -0.89900
H658        H  0.60685702  0.85697461  0.13671489     0.17800
H659        H  0.72106476  0.97870249  0.17881910     0.17700
N660        N  0.67981117  0.01761052  0.11761762    -0.89000
H661        H  0.65043464  0.78695953  0.17749397     0.35100
H662        H  0.61665977  0.81969674  0.20926226     0.40200
H663        H  0.71052495  0.01651021  0.10609860     0.39800
H664        H  0.67762935  0.04892853  0.13895908     0.34700
C665        C  0.90321338  0.95755521  0.37715638    -0.27000
C666        C  0.93940753  0.98853120  0.38244368    -0.15100
C667        C  0.94769522  0.03304614  0.35653390     0.35600
C668        C  0.92092645  0.04373638  0.32504636    -0.26500
C669        C  0.88597772  0.01087836  0.31844961    -0.15700
C670        C  0.87625481  0.96867863  0.34596434     0.36600
N671        N  0.83874827  0.93744638  0.34386491    -0.89900
H672        H  0.89583501  0.92422967  0.39743947     0.17800
H673        H  0.92801282  0.07738667  0.30500851     0.17700
N674        N  0.49076715  0.05943166  0.35436559    -0.89000
H675        H  0.84018854  0.91483853  0.31728221     0.35100
H676        H  0.81342143  0.96381704  0.34320547     0.40200
H677        H  0.51669073  0.03397237  0.35321004     0.39800
H678        H  0.48995955  0.08029219  0.38192758     0.34700
C679        C  0.97641643  0.00405346  0.16407401    -0.27000
C680        C  0.96948410  0.98158993  0.12573282    -0.15100
C681        C  0.92940274  0.96116575  0.11738216     0.35600
C682        C  0.89689591  0.96582119  0.14702207    -0.26500
C683        C  0.90376865  0.99053924  0.18451726    -0.15700
C684        C  0.94398222  0.00892433  0.19321579     0.36600
N685        N  0.95144037  0.03539721  0.23090856    -0.89900
H686        H  0.00699898  0.01956926  0.17109917     0.17800
H687        H  0.86558951  0.95307716  0.14003199     0.17700
N688        N  0.92125224  0.93857561  0.07827860    -0.89000
H689        H  0.96244299  0.07452826  0.22475807     0.35100
H690        H  0.97485317  0.01432265  0.24529266     0.40200
H691        H  0.92482752  0.96965498  0.05704619     0.39800
H692        H  0.89030693  0.92539719  0.07716520     0.34700
C693        C  0.74772479  0.68147808  0.28154063    -0.27000
C694        C  0.78821568  0.66302866  0.27401262    -0.15100
C695        C  0.82090638  0.70099023  0.26743050     0.35600
C696        C  0.81180383  0.75671177  0.26732692    -0.26500
C697        C  0.77056534  0.77545353  0.27255644    -0.15700
C698        C  0.73843524  0.73660523  0.28013852     0.36600
N699        N  0.69567472  0.75277526  0.28443425    -0.89900
H700        H  0.72244758  0.65253476  0.28590129     0.17800
H701        H  0.83725278  0.78456226  0.26143229     0.17700
N702        N  0.86336646  0.68458829  0.25984316    -0.89000
H703        H  0.68386386  0.73918891  0.31246763     0.35100
H704        H  0.67896641  0.73359064  0.26178609     0.40200
H705        H  0.86642636  0.64260322  0.26134725     0.39800
H706        H  0.88104119  0.70051899  0.28312353     0.34700
C707        C  0.81467992  0.17037798  0.20222531    -0.27000
C708        C  0.80162833  0.13439065  0.23342792    -0.15100
C709        C  0.77494475  0.15511734  0.26464318     0.35600
C710        C  0.76632735  0.21074258  0.26675520    -0.26500
C711        C  0.78353448  0.24726849  0.23817754    -0.15700
C712        C  0.80636810  0.22620275  0.20462482     0.36600
N713        N  0.82313499  0.26148171  0.17381095    -0.89900
H714        H  0.83310324  0.15702637  0.17636177     0.17800
H715        H  0.74747057  0.22562699  0.29218414     0.17700
N716        N  0.75814600  0.12012491  0.29564434    -0.89000
H717        H  0.81163353  0.24892539  0.14605927     0.35100
H718        H  0.85552280  0.25706365  0.17244438     0.40200
H719        H  0.72565956  0.12279566  0.29569245     0.39800
H720        H  0.76809315  0.13429253  0.32358464     0.34700
C721        C  0.90626455  0.51815548  0.38002373    -0.27000
C722        C  0.87803032  0.47522942  0.38592738    -0.15100
C723        C  0.87813791  0.44632750  0.42265685     0.35600
C724        C  0.90473478  0.46244497  0.45313344    -0.23500
C725        C  0.93260107  0.50612124  0.44779420    -0.15700
C726        C  0.93426895  0.53274539  0.40986301     0.36600
N727        N  0.96530600  0.57302882  0.40048191    -0.89900
H728        H  0.90763302  0.53959375  0.35146869     0.17800
H729        H  0.90210089  0.44109845  0.48155351     0.17700
N730        N  0.85087016  0.40100402  0.42974532    -0.89000
H731        H  0.95013396  0.60868546  0.39273553     0.35100
H732        H  0.48972553  0.55125264  0.37515384     0.40200
H733        H  0.83292494  0.40871747  0.45609889     0.39800
H734        H  0.86922377  0.36711432  0.43509764     0.34700
C735        C  0.92955017  0.46132528  0.11084762    -0.27000
C736        C  0.92329819  0.49741460  0.07894827    -0.15100
C737        C  0.88338023  0.51940425  0.07402200     0.35600
C738        C  0.85153073  0.50791529  0.10212826    -0.26500
C739        C  0.85818426  0.47562064  0.13616930    -0.15700
C740        C  0.89710904  0.44975958  0.13957735     0.36600
N741        N  0.90425615  0.41424932  0.17289773    -0.89900
H742        H  0.96014569  0.44395838  0.11421372     0.17800
H743        H  0.82149156  0.52657692  0.09802123     0.17700
N744        N  0.87438818  0.55513405  0.04149883    -0.89000
H745        H  0.93500160  0.40046687  0.17166720     0.35100
H746        H  0.88539049  0.38003626  0.16927790     0.40200
H747        H  0.88054618  0.53515373  0.01416623     0.39800
H748        H  0.89367615  0.58907581  0.04303762     0.34700
C749        C  0.55619716  0.65684889  0.00786970    -0.27000
C750        C  0.01629918  0.64633107  0.02679731    -0.15100
C751        C  0.98529440  0.68650396  0.03349538     0.35600
C752        C  0.99591043  0.74146905  0.03275949    -0.26500
C753        C  0.53887517  0.75159347  0.01939670    -0.15700
C754        C  0.56614135  0.71210639  0.00329864     0.36600
N755        N  0.60973135  0.72760507  0.49586181    -0.89900
H756        H  0.58107296  0.62956324  0.50325372     0.17800
H757        H  0.97141066  0.77127387  0.03670219     0.17700
N758        N  0.94229059  0.67192502  0.03918504    -0.89000
H759        H  0.63100405  0.71103578  0.51555311     0.35100
H760        H  0.61478157  0.76935242  0.49665442     0.40200
H761        H  0.92554299  0.68991126  0.01627445     0.39800
H762        H  0.93148552  0.68779936  0.06694875     0.34700
C763        C  0.68018837  0.44872899  0.44431153    -0.27000
C764        C  0.63948398  0.44074745  0.43159447    -0.15100
C765        C  0.63101273  0.44562217  0.38999496     0.35600
C766        C  0.66415025  0.45082113  0.36161169    -0.26500
C767        C  0.70530488  0.45191791  0.37429102    -0.15700
C768        C  0.71316210  0.45395828  0.41600016     0.36600
N769        N  0.75466690  0.45788476  0.43022406    -0.89900
H770        H  0.68691954  0.44588152  0.47614958     0.17800
H771        H  0.65790944  0.45098104  0.32959466     0.17700
N772        N  0.58928046  0.44496974  0.37588413    -0.89000
H773        H  0.76846167  0.49303929  0.41826342     0.35100
H774        H  0.77129985  0.42458339  0.41897575     0.40200
H775        H  0.57251592  0.47545718  0.39111713     0.39800
H776        H  0.57519312  0.40782876  0.38276363     0.34700
C777        C  0.67217690  0.37851847  0.07568027    -0.27000
C778        C  0.63741523  0.41086176  0.06871662    -0.15100
C779        C  0.62846770  0.45489622  0.09459897     0.35600
C780        C  0.65413235  0.46571982  0.12708677    -0.26500
C781        C  0.68898528  0.43344373  0.13435698    -0.15700
C782        C  0.69821900  0.38948348  0.10782900     0.36600
N783        N  0.73453163  0.35664320  0.11153710    -0.89900
H784        H  0.67954176  0.34493265  0.05551798     0.17800
H785        H  0.64662355  0.49973514  0.14678135     0.17700
N786        N  0.59278503  0.48803729  0.08865286    -0.89000
H787        H  0.73244834  0.33601204  0.13905098     0.35100
H788        H  0.76088908  0.38173753  0.11091629     0.40200
H789        H  0.60304008  0.52803613  0.08502942     0.39800
H790        H  0.57362308  0.48628641  0.11481464     0.34700
C791        C  0.55638404  0.24925557  0.95624313    -0.27000
C792        C  0.54879614  0.28208623  0.99074784    -0.15100
C793        C  0.52865521  0.25787316  0.02484007     0.35600
C794        C  0.52193499  0.20172128  0.02576404    -0.26500
C795        C  0.53463405  0.16812948  0.99316782    -0.15700
C796        C  0.55048287  0.19307395  0.95731855     0.36600
N797        N  0.56248708  0.16279399  0.92182048    -0.89900
H798        H  0.56838482  0.26582307  0.92813108     0.17800
H799        H  0.01338229  0.18929632  0.05364433     0.17700
N800        N  0.51665675  0.29139455  0.55402061    -0.89000
H801        H  0.54416194  0.14158110  0.40803929     0.35100
H802        H  0.59259568  0.13672208  0.42749543     0.40200
H803        H  0.53187025  0.27481361  0.08455597     0.39800
H804        H  0.98892989  0.28938158  0.06681730     0.34700
C805        C  0.56583547  0.34027550  0.99365075     0.85800
C806        C  0.59782498  0.34613752  0.52594179    -0.54400
C807        C  0.61279316  0.39674763  0.53288906     0.08700
C808        C  0.59810364  0.43929973  0.50285186     0.19700
C809        C  0.53474864  0.38526106  0.49931702    -0.55200
C810        C  0.55011434  0.43665566  0.50612984     0.08800
C811        C  0.59252739  0.36127503  0.95736307    -0.54700
C812        C  0.60789896  0.41219397  0.96239521     0.09400
H813        H  0.60529360  0.31196393  0.54492374     0.13900
H814        H  0.61247164  0.47945981  0.50789112    -0.00300
H815        H  0.50197365  0.37490344  0.49963664     0.14200
H816        H  0.60204482  0.33779755  0.93103118     0.14000
C817        C  0.00079146  0.58248644  0.52448974     0.85800
C818        C  0.97407134  0.56235372  0.56069771    -0.54400
C819        C  0.95785549  0.51187718  0.55582430     0.08700
C820        C  0.97194835  0.48414545  0.51602329     0.19700
C821        C  0.53845995  0.53715198  0.51884515    -0.55200
C822        C  0.52322590  0.48527920  0.51442270     0.08800
C823        C  0.97751624  0.57816304  0.98502361    -0.54700
C824        C  0.96282659  0.52673616  0.97978793     0.09400
H825        H  0.96562683  0.58766402  0.58661932     0.13900
H826        H  0.95897308  0.44297726  0.51376756    -0.00300
H827        H  0.57130796  0.54622930  0.51898947     0.14200
H828        H  0.97062593  0.61120226  0.96485217     0.14000
O829        O  0.79416344  0.58954798  0.73091754    -0.81600
O830        O  0.78636255  0.34163084  0.72296781    -0.66300
O831        O  0.75800897  0.48862856  0.74639848    -1.12900
C832        C  0.85287563  0.46369683  0.85197165     1.05300
O833        O  0.77028023  0.32488032  0.78677484    -0.79500
O834        O  0.75957598  0.39727684  0.84642886    -0.67100
Ni835      Ni  0.75507333  0.54177382  0.70552294     1.34900
C836        C  0.74220248  0.44308260  0.84897996     0.84000
O837        O  0.73461454  0.41153396  0.68813047    -0.80000
O838        O  0.71611929  0.49788468  0.67699494    -0.90300
C839        C  0.77874352  0.30779769  0.75117212     0.83600
O840        O  0.79913867  0.51604002  0.67121385    -0.68500
O841        O  0.84327148  0.41356924  0.84899090    -0.87800
C842        C  0.82244591  0.47472820  0.67023517     0.84500
C843        C  0.71402345  0.44718447  0.66945744     1.06000
H844        H  0.83809975  0.42259324  0.76428058     0.37800
O845        O  0.80986868  0.42366549  0.77530579    -1.10400
O846        O  0.75388136  0.48381102  0.82813271    -0.67100
Ni847      Ni  0.79777335  0.49712965  0.78796819     1.26300
O848        O  0.81736862  0.43491815  0.69425001    -0.67300
O849        O  0.83828809  0.50089606  0.82962620    -0.79600
C850        C  0.79005043  0.60600813  0.76722996     0.83800
O851        O  0.78576322  0.57247370  0.79611602    -0.66800
Ni852      Ni  0.80685656  0.37088065  0.81664157     1.27400
Ni853      Ni  0.77235458  0.41615220  0.73203387     1.26100
H854        H  0.73042554  0.48709258  0.75897568     0.38400
C855        C  0.81868889  0.07925601  0.74295752     0.85800
C856        C  0.84745882  0.06129669  0.70731725    -0.54400
C857        C  0.86435139  0.01133273  0.71176070     0.08700
C858        C  0.85082121  0.98294029  0.75140882     0.19700
C859        C  0.78624868  0.03350828  0.74719156    -0.55200
C860        C  0.80255301  0.98254130  0.75155776     0.08800
C861        C  0.84615790  0.07358111  0.77997946    -0.54700
C862        C  0.86242314  0.02334575  0.78489388     0.09400
H863        H  0.85668209  0.08616489  0.68168256     0.13900
H864        H  0.86577198  0.94299926  0.75450126    -0.00300
H865        H  0.75331258  0.04217603  0.74661367     0.14200
H866        H  0.85261770  0.10687359  0.80047001     0.14000
C867        C  0.75738343  0.83723177  0.77019555     0.85800
C868        C  0.72861301  0.84174424  0.73429291    -0.54400
C869        C  0.71347651  0.89220789  0.72820973     0.08700
C870        C  0.72766365  0.93415968  0.75936977     0.19700
C871        C  0.79131828  0.88103567  0.76167422    -0.55200
C872        C  0.77587261  0.93257457  0.75675722     0.08800
C873        C  0.73274868  0.86030970  0.80696667    -0.54700
C874        C  0.71584668  0.90982919  0.80086471     0.09400
H875        H  0.72223727  0.80791290  0.71427081     0.13900
H876        H  0.71320395  0.97411627  0.75506662    -0.00300
H877        H  0.82422896  0.87230888  0.76078859     0.14200
H878        H  0.72727590  0.83821517  0.83498142     0.14000
O879        O  0.53300341  0.09258747  0.53178115    -0.81600
O880        O  0.53907944  0.84655303  0.54035737    -0.66300
O881        O  0.56973861  0.99257951  0.51676744    -1.12900
C882        C  0.97841662  0.97473170  0.90991391     1.05300
O883        O  0.55200535  0.82531244  0.97489015    -0.79500
O884        O  0.56368931  0.90059492  0.91673287    -0.67100
Ni885      Ni  0.57155318  0.04600354  0.55812092     1.34900
C886        C  0.58338070  0.94522272  0.91642231     0.84000
O887        O  0.59294857  0.91620999  0.57427280    -0.80000
O888        O  0.61026187  0.00310226  0.58696665    -0.90300
C889        C  0.54396279  0.81112418  0.51270304     0.83600
O890        O  0.52689753  0.02049269  0.59265558    -0.68500
O891        O  0.98801230  0.92462766  0.91189210    -0.87800
C892        C  0.99687442  0.98002348  0.59497043     0.84500
C893        C  0.61366155  0.95231084  0.59309316     1.06000
H894        H  0.98246675  0.93024634  0.50140032     0.37800
O895        O  0.51456699  0.92619537  0.98852134    -1.10400
O896        O  0.57337845  0.98553410  0.93867135    -0.67100
Ni897      Ni  0.52786011  0.99988058  0.97685083     1.26300
O898        O  0.00316084  0.94050380  0.57094821    -0.67300
O899        O  0.99230351  0.01125218  0.93354755    -0.79600
C900        C  0.53822481  0.10974017  0.49575017     0.83800
O901        O  0.54063361  0.07526973  0.97021690    -0.66800
Ni902      Ni  0.02061558  0.87965492  0.94623560     1.27400
Ni903      Ni  0.55465390  0.92034402  0.53071152     1.26100
H904        H  0.59750142  0.99134776  0.50457644     0.38400
C905        C  0.69249494  0.93603544  0.87095975    -0.27000
C906        C  0.68393888  0.93226027  0.82961133    -0.15100
C907        C  0.64294484  0.94068901  0.81717951     0.35600
C908        C  0.61088696  0.94928708  0.84623121    -0.26500
C909        C  0.61901107  0.94962995  0.88757426    -0.15700
C910        C  0.66039040  0.94462841  0.90002876     0.36600
N911        N  0.67017278  0.94495017  0.94198037    -0.89900
H912        H  0.72390431  0.92933605  0.88080543     0.17800
H913        H  0.57906253  0.95253151  0.83655587     0.17700
N914        N  0.63307560  0.93629274  0.77538864    -0.89000
H915        H  0.65354578  0.91363608  0.95644132     0.35100
H916        H  0.66015081  0.98170877  0.95459802     0.40200
H917        H  0.61938523  0.97256648  0.76675919     0.39800
H918        H  0.61104260  0.90531247  0.77248831     0.34700
C919        C  0.63089503  0.88878648  0.64826870    -0.27000
C920        C  0.64162567  0.93481776  0.62530497    -0.15100
C921        C  0.67687779  0.96569507  0.63577689     0.35600
C922        C  0.69959102  0.95129871  0.66958929    -0.26500
C923        C  0.68827430  0.90599570  0.69294009    -0.15700
C924        C  0.65376990  0.87428368  0.68195219     0.36600
N925        N  0.64090901  0.82847022  0.70576533    -0.89900
H926        H  0.60369045  0.86494657  0.64098288     0.17800
H927        H  0.72659374  0.97529626  0.67728754     0.17700
N928        N  0.69019506  0.01115942  0.61179242    -0.89000
H929        H  0.64141211  0.79434282  0.68693701     0.35100
H930        H  0.61012661  0.83458411  0.71599466     0.40200
H931        H  0.72074621  0.00411258  0.60120321     0.39800
H932        H  0.69050222  0.04533604  0.63055944     0.34700
C933        C  0.91190609  0.95914962  0.87594707    -0.27000
C934        C  0.94852175  0.98996859  0.87891728    -0.15100
C935        C  0.95629834  0.03255712  0.85122180     0.35600
C936        C  0.92761444  0.04299403  0.82122211    -0.26500
C937        C  0.89141749  0.01125613  0.81772380    -0.15700
C938        C  0.88327046  0.96956408  0.84604407     0.36600
N939        N  0.84566806  0.93821210  0.84608907    -0.89900
H940        H  0.90538177  0.92671683  0.89726083     0.17800
H941        H  0.93408997  0.07537718  0.79985849     0.17700
N942        N  0.49122896  0.05948145  0.85539206    -0.89000
H943        H  0.84539118  0.91564688  0.81945414     0.35100
H944        H  0.82026283  0.96453132  0.84693657     0.40200
H945        H  0.51694425  0.03366320  0.85437253     0.39800
H946        H  0.49008169  0.07982195  0.88313724     0.34700
C947        C  0.96964896  0.97444019  0.66556919    -0.27000
C948        C  0.96164094  0.97757233  0.62425943    -0.15100
C949        C  0.92068265  0.98502785  0.61185820     0.35600
C950        C  0.88844291  0.99181895  0.64106886    -0.26500
C951        C  0.89667460  0.99137555  0.68253679    -0.15700
C952        C  0.93744694  0.98112362  0.69482654     0.36600
N953        N  0.94685871  0.98115306  0.73682380    -0.89900
H954        H  0.00132337  0.96910859  0.67514948     0.17800
H955        H  0.85722712  0.00019921  0.63135868     0.17700
N956        N  0.91222849  0.98891844  0.56971431    -0.89000
H957        H  0.96925145  0.01120289  0.74161631     0.35100
H958        H  0.95996826  0.94376496  0.74358400     0.40200
H959        H  0.89898225  0.02677173  0.56468507     0.39800
H960        H  0.89016022  0.95923359  0.56294722     0.34700
C961        C  0.74913576  0.68405277  0.79037077    -0.27000
C962        C  0.78720027  0.66483454  0.77484998    -0.15100
C963        C  0.81781023  0.70239873  0.76066370     0.35600
C964        C  0.80895159  0.75820613  0.76169857    -0.26500
C965        C  0.76984520  0.77775010  0.77569810    -0.15700
C966        C  0.73956514  0.73920337  0.78953741     0.36600
N967        N  0.69791160  0.75530977  0.80069476    -0.89900
H968        H  0.72510044  0.65551235  0.80018072     0.17800
H969        H  0.83231421  0.78555887  0.74921948     0.17700
N970        N  0.85771614  0.68553684  0.74417151    -0.89000
H971        H  0.69140688  0.74277587  0.83042648     0.35100
H972        H  0.67737222  0.73519088  0.78179768     0.40200
H973        H  0.86143157  0.64371623  0.74628039     0.39800
H974        H  0.88055270  0.70272262  0.76211765     0.34700
C975        C  0.80562640  0.16964934  0.70627995    -0.27000
C976        C  0.79972116  0.13614789  0.74059487    -0.15100
C977        C  0.77801659  0.15811737  0.77471389     0.35600
C978        C  0.76898764  0.21352436  0.77633367    -0.26500
C979        C  0.78039693  0.24825335  0.74417603    -0.15700
C980        C  0.79645377  0.22521854  0.70790588     0.36600
N981        N  0.80476223  0.25810806  0.67294763    -0.89900
H982        H  0.81819031  0.15409688  0.67797655     0.17800
H983        H  0.75459823  0.22967228  0.80390713     0.17700
N984        N  0.76675171  0.12470596  0.80873821    -0.89000
H985        H  0.78754839  0.24254679  0.64920202     0.35100
H986        H  0.83639245  0.25476501  0.66480934     0.40200
H987        H  0.73445353  0.12679899  0.81355653     0.39800
H988        H  0.78079800  0.14073825  0.83427756     0.34700
C989        C  0.91298378  0.51818807  0.87625389    -0.27000
C990        C  0.88203926  0.47886579  0.88383744    -0.15100
C991        C  0.87994826  0.45315326  0.92185189     0.35600
C992        C  0.90649542  0.46947132  0.95215413    -0.23500
C993        C  0.93674697  0.50979730  0.94536846    -0.15700
C994        C  0.94117249  0.53258984  0.90621439     0.36600
N995        N  0.97509152  0.56846514  0.89609085    -0.89900
H996        H  0.91613433  0.53658502  0.84659817     0.17800
H997        H  0.90204903  0.45104036  0.98158890     0.17700
N998        N  0.85032493  0.41092225  0.93045893    -0.89000
H999        H  0.96272501  0.60479152  0.88585665     0.35100
H1000       H  0.48523332  0.55587665  0.87682881     0.40200
H1001       H  0.83320359  0.42186953  0.95665592     0.39800
H1002       H  0.86682499  0.37587926  0.93710565     0.34700
C1003       C  0.92830413  0.46064868  0.61530121    -0.27000
C1004       C  0.92196693  0.49345499  0.58148948    -0.15100
C1005       C  0.88182533  0.51427128  0.57526543     0.35600
C1006       C  0.84975854  0.50437121  0.60349835    -0.26500
C1007       C  0.85634796  0.47472243  0.63876012    -0.15700
C1008       C  0.89564173  0.45093861  0.64403042     0.36600
N1009       N  0.90307038  0.41928485  0.67919897    -0.89900
H1010       H  0.95902943  0.44458332  0.62032130     0.17800
H1011       H  0.81950671  0.52186893  0.59834559     0.17700
N1012       N  0.87271632  0.54720106  0.54121445    -0.89000
H1013       H  0.92746020  0.43737465  0.69460584     0.35100
H1014       H  0.91282055  0.38088561  0.66956007     0.40200
H1015       H  0.87819976  0.52467110  0.51494381     0.39800
H1016       H  0.89228895  0.58097781  0.54079701     0.34700
C1017       C  0.55798263  0.65825757  0.51391274    -0.27000
C1018       C  0.01290352  0.64265261  0.52822744    -0.15100
C1019       C  0.98111896  0.68204300  0.53433122     0.35600
C1020       C  0.99072316  0.73731296  0.53291695    -0.26500
C1021       C  0.53856723  0.75305549  0.52213624    -0.15700
C1022       C  0.56856802  0.71349031  0.51098578     0.36600
N1023       N  0.60362313  0.72796832  0.98170214    -0.89900
H1024       H  0.57703511  0.62788878  0.99351635     0.17800
H1025       H  0.96573934  0.76650437  0.53639852     0.17700
N1026       N  0.93836470  0.66622669  0.54005513    -0.89000
H1027       H  0.60279981  0.71170766  0.95248013     0.35100
H1028       H  0.62879132  0.71073919  0.99612531     0.40200
H1029       H  0.92139095  0.68310833  0.51683760     0.39800
H1030       H  0.92713834  0.68240116  0.56756656     0.34700
C1031       C  0.68058966  0.43886363  0.94780658    -0.27000
C1032       C  0.64002085  0.43431869  0.93411167    -0.15100
C1033       C  0.63255994  0.44187270  0.89260100     0.35600
C1034       C  0.66631011  0.44946254  0.86517716    -0.26500
C1035       C  0.70724573  0.44847043  0.87855726    -0.15700
C1036       C  0.71419539  0.44482200  0.92038751     0.36600
N1037       N  0.75530902  0.44373888  0.93553057    -0.89900
H1038       H  0.68655215  0.43301892  0.97958255     0.17800
H1039       H  0.66070313  0.45263241  0.83313098     0.17700
N1040       N  0.59121788  0.44118277  0.87757732    -0.89000
H1041       H  0.77124826  0.47843916  0.92545534     0.35100
H1042       H  0.77016667  0.40967757  0.92323423     0.40200
H1043       H  0.57367540  0.47034656  0.89346402     0.39800
H1044       H  0.57769267  0.40328666  0.88312387     0.34700
C1045       C  0.67505269  0.37991993  0.57394547    -0.27000
C1046       C  0.63847557  0.40922223  0.56810385    -0.15100
C1047       C  0.62559058  0.44817944  0.59694863     0.35600
C1048       C  0.64995308  0.45840408  0.63054671    -0.26500
C1049       C  0.68703796  0.42996374  0.63624150    -0.15700
C1050       C  0.69953262  0.38994818  0.60748043     0.36600
N1051       N  0.73763955  0.36053313  0.61046115    -0.89900
H1052       H  0.68499711  0.34962278  0.55190424     0.17800
H1053       H  0.63986333  0.48903889  0.65225354     0.17700
N1054       N  0.58723909  0.47656067  0.59275793    -0.89000
H1055       H  0.73618296  0.33760018  0.63695393     0.35100
H1056       H  0.76235086  0.38816947  0.61186508     0.40200
H1057       H  0.59384811  0.51805199  0.59231180     0.39800
H1058       H  0.56809988  0.46859152  0.61826883     0.34700
C1059       C  0.56145129  0.25048618  0.45256954    -0.27000
C1060       C  0.55162882  0.28363920  0.48649857    -0.15100
C1061       C  0.53004278  0.25939258  0.51977784     0.35600
C1062       C  0.52346029  0.20322943  0.52059108    -0.26500
C1063       C  0.53803489  0.16946943  0.48884700    -0.15700
C1064       C  0.55548837  0.19419525  0.45358232     0.36600
N1065       N  0.56941174  0.16345620  0.41891183    -0.89900
H1066       H  0.57576827  0.26667750  0.42531219     0.17800
H1067       H  0.00483612  0.18718197  0.55104530     0.17700
N1068       N  0.51666661  0.28989224  0.05952853    -0.89000
H1069       H  0.53663389  0.14110464  0.91216679     0.35100
H1070       H  0.58625413  0.13606315  0.92888542     0.40200
H1071       H  0.53088500  0.27642982  0.57963800     0.39800
H1072       H  0.98156331  0.28810644  0.56213964     0.34700
loop_ 
_geom_bond_atom_site_label_1 
_geom_bond_atom_site_label_2 
_geom_bond_distance 
_geom_bond_site_symmetry_2 
_ccdc_geom_bond_type 
C1            C7   1.539       .  S
C1          C270   1.537       .  S
C1          C273   1.540       .  S
C1          C524   1.540       .  S
C2          C269   1.538   1_554  S
C2            H9   1.087       .  S
C2            C3   1.360       .  D
C3            C4   1.538       .  S
C3          C242   1.485       .  S
C4            C6   1.543       .  S
C4          C276   1.534   1_554  S
C4           H10   1.106       .  S
C5          C269   1.540   1_554  S
C5           H11   1.081       .  S
C5            C6   1.379       .  D
C6           C18   1.501       .  S
C7           H12   1.080       .  S
C7            C8   1.360       .  D
C8          C272   1.535       .  S
C8          C228   1.474       .  S
C13          C14   1.536       .  S
C13         C287   1.533   1_554  S
C13         C553   1.544       .  S
C13         C214   1.537       .  S
C14          H21   1.085       .  S
C14          C15   1.360       .  D
C15          C16   1.537       .  S
C15         C200   1.478       .  S
C16         C288   1.541   1_554  S
C16         C554   1.542       .  S
C16          H22   1.102       .  S
C17         C549   1.548       .  S
C17          H23   1.076       .  S
C17          C18   1.378       .  D
C18         C552   1.539   1_455  S
C19         C281   1.537       .  S
C19          H24   1.084       .  S
C19          C20   1.367       .  D
C20         C284   1.539       .  S
C20         C189   1.496       .  S
O25         Ni31   1.927       .  S
O25          C46   1.267       .  A
O26         Ni49   1.929       .  S
O26          C35   1.274       .  A
O27         Ni31   1.896       .  S
O27         Ni49   1.912       .  S
O27         Ni43   1.918       .  S
O27          H50   0.966       .  S
C28          O45   1.281       .  A
C28          O37   1.278       .  A
C28         C186   1.478       .  S
O29         Ni48   1.924       .  S
O29          C35   1.271       .  A
O30         Ni48   1.903       .  S
O30          C32   1.267       .  A
Ni31         O34   1.920       .  S
Ni31         O36   1.889       .  S
C32          O42   1.269       .  A
C32         C231   1.473       .  S
O33         Ni49   1.930       .  S
O33          C39   1.281       .  A
O34          C39   1.278       .  A
C35         C175   1.497       .  S
O36          C38   1.268       .  A
O37         Ni48   1.921       .  S
C38          O44   1.273       .  A
C38         C203   1.481       .  S
C39         C245   1.486       .  S
H40          O41   0.966       .  S
O41         Ni49   1.914       .  S
O41         Ni43   1.904       .  S
O41         Ni48   1.899       .  S
O42         Ni43   1.929       .  S
Ni43         O47   1.924       .  S
Ni43         O45   1.923       .  S
O44         Ni49   1.938       .  S
C46          O47   1.269       .  A
C46         C158   1.476       .  S
C51          C52   1.541       .  S
C51          C57   1.538       .  S
C51          C55   1.542       .  S
C51         C172   1.547       .  S
C52          H59   1.081       .  S
C52          C53   1.365       .  D
C53          C54   1.542   1_545  S
C53         C147   1.490   1_545  S
C54          C58   1.538   1_565  S
C54          C56   1.552       .  S
C54          H60   1.105       .  S
C55          H61   1.082       .  S
C55          C56   1.378   1_545  D
C56          C68   1.511       .  S
C57          H62   1.087       .  S
C57          C58   1.361       .  D
C58         C133   1.484       .  S
C63          C64   1.535       .  S
C63          C69   1.536       .  S
C63          C67   1.549       .  S
C63         C161   1.540       .  S
C64          H71   1.086       .  S
C64          C65   1.360       .  D
C65          C66   1.537       .  S
C65         C119   1.481       .  S
C66          C70   1.540       .  S
C66          C68   1.551       .  S
C66          H72   1.106       .  S
C67          H73   1.077       .  S
C67          C68   1.380       .  D
C69          H74   1.087       .  S
C69          C70   1.361       .  D
C70         C102   1.489       .  S
O75         Ni81   1.923       .  S
O75          C96   1.271   1_554  A
O76         Ni99   1.907       .  S
O76          C85   1.268       .  A
O77         Ni81   1.894   1_565  S
O77         Ni99   1.897       .  S
O77        Ni361   1.915   1_564  S
O77         H100   0.966       .  S
C78          O95   1.278   1_565  A
C78          O87   1.278       .  A
C78         C130   1.476       .  S
O79        Ni634   1.934       .  S
O79         C353   1.272       .  A
O80        Ni634   1.905       .  S
O80          C82   1.268       .  A
Ni81         O84   1.916       .  S
Ni81         O86   1.909       .  S
C82          O92   1.274       .  A
C82         C105   1.475       .  S
O83         Ni99   1.928       .  S
O83          C89   1.280       .  A
O84          C89   1.277   1_545  A
C85         O347   1.272   1_554  A
C85         C217   1.472       .  S
O86         C624   1.269   1_545  A
O87         Ni98   1.923       .  S
C88          O94   1.270       .  A
C88         O622   1.267   1_565  A
C88         C144   1.473       .  S
C89         C116   1.484       .  S
H90         O895   0.967       .  S
O91         Ni93   1.902   1_565  S
O91        Ni367   1.914       .  S
O91        Ni634   1.897       .  S
O91         H894   0.966   1_455  S
O92         Ni93   1.939   1_565  S
Ni93         O97   1.918       .  S
Ni93        O631   1.917   1_455  S
Ni93        O345   1.911   1_545  S
O94        Ni635   1.931       .  S
O95        Ni629   1.919       .  S
C96         O365   1.272       .  A
C96         C259   1.493       .  S
O97         C364   1.271       .  A
Ni98        O615   1.934       .  S
Ni98        O616   1.901       .  S
Ni98        O627   1.896       .  S
Ni99        O630   1.932       .  S
Ni99        O359   1.910   1_554  S
C101        C102   1.406       .  A
C101        C106   1.404       .  A
C101        H108   1.084       .  S
C102        C103   1.411       .  A
C103        C104   1.405       .  A
C103        N110   1.431       .  S
C104        C105   1.402       .  A
C104        H109   1.084       .  S
C105        C106   1.411       .  A
C106        N107   1.432       .  S
N107        H111   1.046       .  S
N107        H112   1.045       .  S
N110        H113   1.045       .  S
N110        H114   1.046       .  S
C115        C116   1.406       .  A
C115        C120   1.403       .  A
C115        H122   1.084       .  S
C116        C117   1.414       .  A
C117        C118   1.401       .  A
C117        N124   1.433   1_565  S
C118        C119   1.400       .  A
C118        H123   1.084       .  S
C119        C120   1.410       .  A
C120        N121   1.433       .  S
N121        H125   1.046       .  S
N121        H126   1.045       .  S
N124        H127   1.046       .  S
N124        H128   1.046       .  S
C129        C130   1.402       .  A
C129        C134   1.396       .  A
C129        H136   1.084       .  S
C130        C131   1.414   1_565  A
C131        C132   1.400       .  A
C131        N674   1.432       .  S
C132        C133   1.405       .  A
C132        H137   1.084       .  S
C133        C134   1.413   1_545  A
C134        N135   1.430       .  S
N135        H139   1.039       .  S
N135        H140   1.046       .  S
N138        C667   1.432       .  S
N138        H141   1.046   1_655  S
N138        H142   1.044       .  S
C143        C144   1.403       .  A
C143        C148   1.407       .  A
C143        H150   1.084       .  S
C144        C145   1.404       .  A
C145        C146   1.405       .  A
C145        N152   1.432       .  S
C146        C147   1.407       .  A
C146        H151   1.084       .  S
C147        C148   1.411       .  A
C148        N149   1.431       .  S
N149        H153   1.046       .  S
N149        H154   1.045       .  S
N152        H155   1.046   1_565  S
N152        H156   1.045       .  S
C157        C158   1.395       .  A
C157        C162   1.400       .  A
C157        H164   1.085       .  S
C158        C159   1.416       .  A
C159        C160   1.410       .  A
C159        N166   1.438       .  S
C160        C161   1.412       .  A
C160        H165   1.078       .  S
C161        C162   1.421       .  A
C162        N163   1.434       .  S
N163        H167   1.045       .  S
N163        H168   1.046       .  S
N166        H169   1.044       .  S
N166        H170   1.046       .  S
C171        C172   1.416       .  A
C171        C176   1.410       .  A
C171        H178   1.076       .  S
C172        C173   1.416       .  A
C173        C174   1.404       .  A
C173        N180   1.433       .  S
C174        C175   1.407       .  A
C174        H179   1.084       .  S
C175        C176   1.410       .  A
C176        N177   1.432       .  S
N177        H181   1.046       .  S
N177        H182   1.046       .  S
N180        H183   1.045       .  S
N180        H184   1.046       .  S
C185        C186   1.402       .  A
C185        C190   1.405       .  A
C185        H192   1.084       .  S
C186        C187   1.409       .  A
C187        C188   1.397       .  A
C187        N194   1.432       .  S
C188        C189   1.405       .  A
C188        H193   1.081       .  S
C189        C190   1.417       .  A
C190        N191   1.432       .  S
N191        H195   1.046       .  S
N191        H732   1.046       .  S
N194        H197   1.045       .  S
N194        H198   1.046       .  S
H196        N727   1.046       .  S
C199        C200   1.406       .  A
C199        C204   1.416       .  A
C199        H206   1.084       .  S
C200        C201   1.411       .  A
C201        C202   1.385       .  A
C201        N208   1.432       .  S
C202        C203   1.402       .  A
C202        H207   1.085       .  S
C203        C204   1.414       .  A
C204        N205   1.437       .  S
N205        H209   1.046       .  S
N205        H210   1.045       .  S
N208        H211   1.040       .  S
N208        H212   1.042       .  S
C213        C218   1.407       .  A
C213        C750   1.413       .  A
C213        H488   1.077       .  S
C214        C215   1.423       .  A
C214        C749   1.414       .  A
C215        C216   1.398       .  A
C215        N222   1.431       .  S
C216        C753   1.394       .  A
C216        H221   1.085       .  S
C217        C218   1.414       .  A
C217        C752   1.394   1_455  A
C218        N487   1.439       .  S
N219        C486   1.432       .  S
N219        H223   1.046       .  S
N219        H224   1.045       .  S
H220        C481   1.078       .  S
N222        H225   1.046       .  S
N222        H226   1.046       .  S
C227        C228   1.397       .  A
C227        C232   1.394       .  A
C227        H234   1.084       .  S
C228        C229   1.414       .  A
C229        C230   1.403       .  A
C229        N236   1.433       .  S
C230        C231   1.402       .  A
C230        H235   1.084       .  S
C231        C232   1.413       .  A
C232        N233   1.430       .  S
N233        H237   1.046       .  S
N233        H238   1.044       .  S
N236        H239   1.046       .  S
N236        H240   1.045       .  S
C241        C242   1.404       .  A
C241        C246   1.402       .  A
C241        H248   1.084       .  S
C242        C243   1.407       .  A
C243        C244   1.402       .  A
C243        N250   1.431       .  S
C244        C245   1.406       .  A
C244        H249   1.084       .  S
C245        C246   1.418       .  A
C246        N247   1.433       .  S
N247        H251   1.045       .  S
N247        H252   1.046       .  S
N250        H253   1.046       .  S
N250        H254   1.045       .  S
C255        C256   1.412       .  A
C255        C260   1.400       .  A
C255        H262   1.076       .  S
C256        C269   1.538       .  S
C256        C257   1.413   1_556  A
C257        C258   1.402       .  A
C257        N532   1.433       .  S
C258        C259   1.408   1_554  A
C258        H799   1.084       .  S
C259        C260   1.416       .  A
C260        N261   1.432       .  S
N261        H533   1.044       .  S
N261        H534   1.045       .  S
H263        C794   1.084       .  S
N264        C525   1.433       .  S
N264        H535   1.046       .  S
N264       H1072   1.045   1_455  S
H265        N529   1.044       .  S
H266        N529   1.045       .  S
H267        N532   1.046       .  S
H268       N1068   1.045       .  S
C269        C275   1.539       .  S
C270        H277   1.087       .  S
C270        C271   1.359       .  D
C271        C272   1.536       .  S
C271        C510   1.481       .  S
C272        C274   1.546       .  S
C272        H278   1.106       .  S
C273        H279   1.081   1_455  S
C273        C274   1.379       .  D
C274        C286   1.504       .  S
C275        H280   1.081       .  S
C275        C276   1.360       .  D
C276        C496   1.471       .  S
C281        C282   1.534       .  S
C281        C821   1.548       .  S
C281        C482   1.541       .  S
C282        H289   1.086       .  S
C282        C283   1.359       .  D
C283        C284   1.536       .  S
C283        C468   1.478       .  S
C284        C822   1.539       .  S
C284        H290   1.101       .  S
C285        C817   1.550       .  S
C285        H291   1.077       .  S
C285        C286   1.379       .  D
C286        C820   1.542   1_455  S
C287        H292   1.084       .  S
C287        C288   1.364       .  D
C288        C457   1.495       .  S
O293       Ni299   1.924       .  S
O293        C314   1.266       .  A
O294       Ni317   1.923       .  S
O294        C303   1.272       .  A
O295       Ni299   1.893       .  S
O295       Ni317   1.905       .  S
O295       Ni311   1.915       .  S
O295        H318   0.966       .  S
C296        O313   1.281       .  A
C296        O305   1.278       .  A
C296        C454   1.482       .  S
O297       Ni316   1.927       .  S
O297        C303   1.271       .  A
O298       Ni316   1.900       .  S
O298        C300   1.266       .  A
Ni299       O302   1.915       .  S
Ni299       O304   1.893       .  S
C300        O310   1.268       .  A
C300        C499   1.466       .  S
O301       Ni317   1.931       .  S
O301        C307   1.281       .  A
O302        C307   1.278       .  A
C303        C443   1.494       .  S
O304        C306   1.268       .  A
O305       Ni316   1.925       .  S
C306        O312   1.272       .  A
C306        C471   1.480       .  S
C307        C513   1.484       .  S
H308        O309   0.967       .  S
O309       Ni317   1.912       .  S
O309       Ni311   1.907       .  S
O309       Ni316   1.898       .  S
O310       Ni311   1.926       .  S
Ni311       O315   1.926       .  S
Ni311       O313   1.921       .  S
O312       Ni317   1.934       .  S
C314        O315   1.271       .  A
C314        C426   1.476       .  S
C319        C320   1.540       .  S
C319        C325   1.539       .  S
C319        C323   1.539       .  S
C319        C440   1.542       .  S
C320        H327   1.081       .  S
C320        C321   1.362       .  D
C321        C322   1.540   1_545  S
C321        C415   1.480   1_545  S
C322        C326   1.539   1_565  S
C322        C324   1.552       .  S
C322        H328   1.106       .  S
C323        H329   1.081       .  S
C323        C324   1.377   1_545  D
C324        C336   1.508       .  S
C325        H330   1.087       .  S
C325        C326   1.361       .  D
C326        C401   1.486       .  S
C331        C332   1.532       .  S
C331        C337   1.537       .  S
C331        C335   1.550       .  S
C331        C429   1.540       .  S
C332        H339   1.086       .  S
C332        C333   1.360       .  D
C333        C334   1.538       .  S
C333        C387   1.481       .  S
C334        C338   1.540       .  S
C334        C336   1.549       .  S
C334        H340   1.103       .  S
C335        H341   1.078       .  S
C335        C336   1.378       .  D
C337        H342   1.086       .  S
C337        C338   1.365       .  D
C338        C370   1.496       .  S
O343       Ni349   1.922       .  S
O343        C364   1.270       .  A
O344       Ni367   1.911       .  S
O344        C353   1.269       .  A
O345       Ni349   1.896   1_565  S
O345       Ni367   1.898       .  S
O345        H368   0.965       .  S
C346        O363   1.278   1_565  A
C346        O355   1.278       .  A
C346        C398   1.479       .  S
O347       Ni902   1.936       .  S
O348       Ni902   1.904       .  S
O348        C350   1.267       .  A
Ni349       O352   1.912       .  S
Ni349       O354   1.905       .  S
C350        O360   1.273       .  A
C350        C373   1.474       .  S
O351       Ni367   1.932       .  S
O351        C357   1.282       .  A
O352        C357   1.277   1_545  A
C353        C485   1.472       .  S
O354        C892   1.266   1_445  A
O355       Ni366   1.923       .  S
C356        O890   1.268   1_565  A
C356        O362   1.269       .  A
C356        C412   1.471       .  S
C357        C384   1.482       .  S
H358        O627   0.966       .  S
O359       Ni361   1.905   1_565  S
O359       Ni902   1.898       .  S
O359        H626   0.966   1_455  S
O360       Ni361   1.940   1_565  S
Ni361       O365   1.917       .  S
Ni361       O899   1.921   1_455  S
O362       Ni903   1.923       .  S
O363       Ni897   1.922   1_545  S
C364        C527   1.492       .  S
Ni366       O883   1.934       .  S
Ni366       O884   1.901       .  S
Ni366       O895   1.902       .  S
Ni367       O898   1.924       .  S
C369        C370   1.408       .  A
C369        C374   1.401       .  A
C369        H376   1.084       .  S
C370        C371   1.415       .  A
C371        C372   1.407       .  A
C371        N378   1.432       .  S
C372        C373   1.401       .  A
C372        H377   1.084       .  S
C373        C374   1.409       .  A
C374        N375   1.432       .  S
N375        H379   1.045       .  S
N375        H380   1.046       .  S
N378        H381   1.046   1_565  S
N378        H382   1.046       .  S
C383        C384   1.404       .  A
C383        C388   1.403       .  A
C383        H390   1.084       .  S
C384        C385   1.414       .  A
C385        C386   1.401       .  A
C385        N392   1.433   1_565  S
C386        C387   1.400       .  A
C386        H391   1.084       .  S
C387        C388   1.410       .  A
C388        N389   1.432       .  S
N389        H393   1.045       .  S
N389        H394   1.046       .  S
N392        H395   1.046       .  S
N392        H396   1.046       .  S
C397        C398   1.403       .  A
C397        C402   1.398       .  A
C397        H404   1.084       .  S
C398        C399   1.414   1_565  A
C399        C400   1.399       .  A
C399        N942   1.432       .  S
C400        C401   1.405       .  A
C400        H405   1.084       .  S
C401        C402   1.413   1_545  A
C402        N403   1.430       .  S
N403        H407   1.040       .  S
N403        H408   1.046       .  S
N406        C935   1.431       .  S
N406        H409   1.046   1_655  S
N406        H410   1.043       .  S
C411        C412   1.401       .  A
C411        C416   1.401       .  A
C411        H418   1.084       .  S
C412        C413   1.407       .  A
C413        C414   1.406       .  A
C413        N420   1.432       .  S
C414        C415   1.404       .  A
C414        H419   1.084       .  S
C415        C416   1.407       .  A
C416        N417   1.430       .  S
N417        H421   1.046   1_565  S
N417        H422   1.045       .  S
N420        H423   1.046       .  S
N420        H424   1.045       .  S
C425        C426   1.395       .  A
C425        C430   1.402       .  A
C425        H432   1.084       .  S
C426        C427   1.407       .  A
C427        C428   1.410       .  A
C427        N434   1.432       .  S
C428        C429   1.412       .  A
C428        H433   1.078       .  S
C429        C430   1.423       .  A
C430        N431   1.434       .  S
N431        H435   1.046       .  S
N431        H436   1.046       .  S
N434        H437   1.046       .  S
N434        H438   1.046       .  S
C439        C440   1.415       .  A
C439        C444   1.409       .  A
C439        H446   1.076       .  S
C440        C441   1.415       .  A
C441        C442   1.403       .  A
C441        N448   1.434       .  S
C442        C443   1.406       .  A
C442        H447   1.084       .  S
C443        C444   1.410       .  A
C444        N445   1.432       .  S
N445        H449   1.046       .  S
N445        H450   1.046       .  S
N448        H451   1.045       .  S
N448        H452   1.046       .  S
C453        C454   1.402       .  A
C453        C458   1.404       .  A
C453        H460   1.084       .  S
C454        C455   1.413       .  A
C455        C456   1.398       .  A
C455        N462   1.431       .  S
C456        C457   1.403       .  A
C456        H461   1.081       .  S
C457        C458   1.417       .  A
C458        N459   1.432       .  S
N459        H463   1.046       .  S
N459       H1000   1.046       .  S
N462        H465   1.046       .  S
N462        H466   1.046       .  S
H464        N995   1.046       .  S
C467        C468   1.405       .  A
C467        C472   1.411       .  A
C467        H474   1.084       .  S
C468        C469   1.412       .  A
C469        C470   1.388       .  A
C469        N476   1.431       .  S
C470        C471   1.402       .  A
C470        H475   1.084       .  S
C471        C472   1.411       .  A
C472        N473   1.431       .  S
N473        H477   1.046       .  S
N473        H478   1.045       .  S
N476        H479   1.039       .  S
N476        H480   1.043       .  S
C481       C1018   1.413       .  A
C481        C486   1.406       .  A
C482       C1017   1.412       .  A
C482        C483   1.422       .  A
C483        C484   1.401       .  A
C483        N490   1.432       .  S
C484       C1021   1.396       .  A
C484        H489   1.085       .  S
C485       C1020   1.393   1_455  A
C485        C486   1.410       .  A
N487        H491   1.046       .  S
N487        H492   1.044       .  S
N490        H493   1.046       .  S
N490        H494   1.046       .  S
C495        C496   1.396       .  A
C495        C500   1.391       .  A
C495        H502   1.084       .  S
C496        C497   1.415       .  A
C497        C498   1.403       .  A
C497        N504   1.433       .  S
C498        C499   1.402       .  A
C498        H503   1.084       .  S
C499        C500   1.410       .  A
C500        N501   1.429       .  S
N501        H505   1.046       .  S
N501        H506   1.044       .  S
N504        H507   1.046       .  S
N504        H508   1.044       .  S
C509        C510   1.403       .  A
C509        C514   1.401       .  A
C509        H516   1.084       .  S
C510        C511   1.405       .  A
C511        C512   1.402       .  A
C511        N518   1.432       .  S
C512        C513   1.407       .  A
C512        H517   1.084       .  S
C513        C514   1.418       .  A
C514        N515   1.433       .  S
N515        H519   1.045       .  S
N515        H520   1.046       .  S
N518        H521   1.046       .  S
N518        H522   1.045       .  S
C523        C524   1.413       .  A
C523        C528   1.401       .  A
C523        H530   1.075       .  S
C524        C525   1.414       .  A
C525        C526   1.402       .  A
C526        C527   1.408       .  A
C526       H1067   1.084       .  S
C527        C528   1.415       .  A
C528        N529   1.432       .  S
H531       C1062   1.084       .  S
N532        H804   1.045   1_455  S
H536        N800   1.045       .  S
C537        C806   1.536       .  S
C537        C543   1.538       .  S
C537        C809   1.543       .  S
C537       C1060   1.540       .  S
C538        C805   1.537   1_554  S
C538        H545   1.087       .  S
C538        C539   1.360       .  D
C539        C540   1.534       .  S
C539        C778   1.479       .  S
C540        C812   1.531   1_554  S
C540        C542   1.542       .  S
C540        H546   1.105       .  S
C541        C805   1.541   1_554  S
C541        H547   1.082       .  S
C541        C542   1.379       .  D
C542        C554   1.500       .  S
C543        H548   1.080       .  S
C543        C544   1.362       .  D
C544        C808   1.536       .  S
C544        C764   1.476       .  S
C549        C550   1.535   1_455  S
C549        C823   1.537   1_454  S
C549        C750   1.539       .  S
C550        H557   1.086       .  S
C550        C551   1.359       .  D
C551        C552   1.533       .  S
C551        C736   1.478       .  S
C552        C824   1.540   1_554  S
C552        H558   1.101       .  S
C553        H559   1.078       .  S
C553        C554   1.377       .  D
C555        C817   1.535   1_655  S
C555        H560   1.083       .  S
C555        C556   1.365       .  D
C556        C820   1.542       .  S
C556        C725   1.498       .  S
O561       Ni567   1.924       .  S
O561        C582   1.267       .  A
O562       Ni585   1.920       .  S
O562        C571   1.273       .  A
O563       Ni567   1.892       .  S
O563       Ni585   1.904       .  S
O563       Ni579   1.913       .  S
O563        H586   0.966       .  S
C564        O581   1.279       .  A
C564        O573   1.279       .  A
C564        C722   1.480       .  S
O565       Ni584   1.929       .  S
O565        C571   1.272       .  A
O566       Ni584   1.904       .  S
O566        C568   1.266       .  A
Ni567       O570   1.914       .  S
Ni567       O572   1.892       .  S
C568        O578   1.267       .  A
C568        C767   1.467       .  S
O569       Ni585   1.923       .  S
O569        C575   1.278       .  A
O570        C575   1.278       .  A
C571        C711   1.493       .  S
O572        C574   1.268       .  A
O573       Ni584   1.925       .  S
C574        O580   1.274       .  A
C574        C739   1.486       .  S
C575        C781   1.481       .  S
H576        O577   0.966       .  S
O577       Ni585   1.907       .  S
O577       Ni579   1.904       .  S
O577       Ni584   1.898       .  S
O578       Ni579   1.924       .  S
Ni579       O583   1.917       .  S
Ni579       O581   1.912       .  S
O580       Ni585   1.938       .  S
C582        O583   1.268       .  A
C582        C694   1.471       .  S
C587        C588   1.539       .  S
C587        C593   1.539       .  S
C587        C591   1.542       .  S
C587        C708   1.544       .  S
C588        H595   1.080       .  S
C588        C589   1.359       .  D
C589        C590   1.540   1_545  S
C589        C683   1.480   1_545  S
C590        C594   1.538   1_565  S
C590        C592   1.550       .  S
C590        H596   1.106       .  S
C591        H597   1.082       .  S
C591        C592   1.379   1_545  D
C592        C604   1.507       .  S
C593        H598   1.087       .  S
C593        C594   1.361       .  D
C594        C669   1.484       .  S
C599        C600   1.531       .  S
C599        C605   1.537       .  S
C599        C603   1.550       .  S
C599        C697   1.535       .  S
C600        H607   1.086       .  S
C600        C601   1.357       .  D
C601        C602   1.536       .  S
C601        C655   1.479       .  S
C602        C606   1.534       .  S
C602        C604   1.549       .  S
C602        H608   1.106       .  S
C603        H609   1.078       .  S
C603        C604   1.381       .  D
C605        H610   1.087       .  S
C605        C606   1.359       .  D
C606        C638   1.481       .  S
O611       Ni617   1.924       .  S
O611        C632   1.271   1_554  A
O612       Ni635   1.905       .  S
O612        C621   1.267       .  A
O613       Ni617   1.896   1_565  S
O613       Ni635   1.897       .  S
O613       Ni897   1.910   1_554  S
O613        H636   0.965       .  S
C614        O631   1.277   1_565  A
C614        O623   1.279       .  A
C614        C666   1.479       .  S
O615        C889   1.272       .  A
O616        C618   1.268       .  A
Ni617       O620   1.915       .  S
Ni617       O622   1.907       .  S
C618        O628   1.273       .  A
C618        C641   1.473       .  S
O619       Ni635   1.918       .  S
O619        C625   1.279       .  A
O620        C625   1.277   1_545  A
C621        O883   1.271   1_554  A
C621        C753   1.473       .  S
O623       Ni634   1.927   1_655  S
C624        O630   1.272       .  A
C624        C680   1.486   1_455  S
C625        C652   1.476       .  S
O627       Ni903   1.910       .  S
O627       Ni629   1.904   1_565  S
O628       Ni629   1.935   1_565  S
Ni629       O633   1.920       .  S
Ni629       O881   1.914   1_545  S
C632        O901   1.271       .  A
C632        C795   1.493       .  S
O633        C900   1.271       .  A
Ni635       O895   1.911   1_554  S
C637        C638   1.405       .  A
C637        C642   1.405       .  A
C637        H644   1.084       .  S
C638        C639   1.407       .  A
C639        C640   1.400       .  A
C639        N646   1.431       .  S
C640        C641   1.401       .  A
C640        H645   1.085       .  S
C641        C642   1.412       .  A
C642        N643   1.432       .  S
N643        H647   1.045       .  S
N643        H648   1.045   1_565  S
N646        H649   1.045       .  S
N646        H650   1.045       .  S
C651        C652   1.403       .  A
C651        C656   1.400       .  A
C651        H658   1.084       .  S
C652        C653   1.412       .  A
C653        C654   1.399       .  A
C653        N660   1.433   1_565  S
C654        C655   1.400       .  A
C654        H659   1.084       .  S
C655        C656   1.412       .  A
C656        N657   1.433       .  S
N657        H661   1.046       .  S
N657        H662   1.045       .  S
N660        H663   1.046       .  S
N660        H664   1.046       .  S
C665        C666   1.403       .  A
C665        C670   1.398       .  A
C665        H672   1.084       .  S
C666        C667   1.415   1_565  A
C667        C668   1.399       .  A
C668        C669   1.403       .  A
C668        H673   1.084       .  S
C669        C670   1.413   1_545  A
C670        N671   1.430       .  S
N671        H675   1.039       .  S
N671        H676   1.046       .  S
N674        H677   1.046       .  S
N674        H678   1.044       .  S
C679        C680   1.405   1_545  A
C679        C684   1.400       .  A
C679        H686   1.084   1_655  S
C680        C681   1.415       .  A
C681        C682   1.412       .  A
C681        N688   1.437       .  S
C682        C683   1.403       .  A
C682        H687   1.084       .  S
C683        C684   1.405   1_565  A
C684        N685   1.431       .  S
N685        H689   1.046       .  S
N685        H690   1.045       .  S
N688        H691   1.046       .  S
N688        H692   1.046       .  S
C693        C694   1.394       .  A
C693        C698   1.397       .  A
C693        H700   1.085       .  S
C694        C695   1.415       .  A
C695        C696   1.409       .  A
C695        N702   1.438       .  S
C696        C697   1.410       .  A
C696        H701   1.078       .  S
C697        C698   1.422       .  A
C698        N699   1.434       .  S
N699        H703   1.046       .  S
N699        H704   1.046       .  S
N702        H705   1.044       .  S
N702        H706   1.046       .  S
C707        C708   1.416       .  A
C707        C712   1.407       .  A
C707        H714   1.075       .  S
C708        C709   1.415       .  A
C709        C710   1.404       .  A
C709        N716   1.433       .  S
C710        C711   1.407       .  A
C710        H715   1.084       .  S
C711        C712   1.408       .  A
C712        N713   1.433       .  S
N713        H717   1.046       .  S
N713        H718   1.046       .  S
N716        H719   1.046       .  S
N716        H720   1.046       .  S
C721        C722   1.401       .  A
C721        C726   1.401       .  A
C721        H728   1.084       .  S
C722        C723   1.411       .  A
C723        C724   1.398       .  A
C723        N730   1.432       .  S
C724        C725   1.406       .  A
C724        H729   1.080       .  S
C725        C726   1.418       .  A
C726        N727   1.432       .  S
N727        H731   1.046       .  S
N730        H733   1.046       .  S
N730        H734   1.046       .  S
C735        C736   1.404       .  A
C735        C740   1.415       .  A
C735        H742   1.084       .  S
C736        C737   1.410       .  A
C737        C738   1.387       .  A
C737        N744   1.432       .  S
C738        C739   1.405       .  A
C738        H743   1.084       .  S
C739        C740   1.415       .  A
C740        N741   1.436       .  S
N741        H745   1.046       .  S
N741        H746   1.046       .  S
N744        H747   1.041       .  S
N744        H748   1.041       .  S
C749        C754   1.408       .  A
C749       H1024   1.080   1_554  S
C750        C751   1.421   1_455  A
C751        C752   1.398       .  A
C751        N758   1.431       .  S
C752        H757   1.085       .  S
C753        C754   1.405       .  A
C754       N1023   1.432   1_554  S
N755       C1022   1.439       .  S
N755        H759   1.046       .  S
N755        H760   1.043       .  S
H756       C1017   1.078       .  S
N758        H761   1.046       .  S
N758        H762   1.046       .  S
C763        C764   1.399       .  A
C763        C768   1.395       .  A
C763        H770   1.084       .  S
C764        C765   1.417       .  A
C765        C766   1.401       .  A
C765        N772   1.434       .  S
C766        C767   1.400       .  A
C766        H771   1.084       .  S
C767        C768   1.411       .  A
C768        N769   1.431       .  S
N769        H773   1.046       .  S
N769        H774   1.044       .  S
N772        H775   1.046       .  S
N772        H776   1.043       .  S
C777        C778   1.402       .  A
C777        C782   1.399       .  A
C777        H784   1.084       .  S
C778        C779   1.406       .  A
C779        C780   1.399       .  A
C779        N786   1.431       .  S
C780        C781   1.406       .  A
C780        H785   1.084       .  S
C781        C782   1.419       .  A
C782        N783   1.433       .  S
N783        H787   1.045       .  S
N783        H788   1.046       .  S
N786        H789   1.046       .  S
N786        H790   1.045       .  S
C791        C792   1.412       .  A
C791        C796   1.400       .  A
C791        H798   1.076       .  S
C792        C805   1.539       .  S
C792        C793   1.414   1_556  A
C793        C794   1.403       .  A
C793       N1068   1.433       .  S
C794        C795   1.408   1_554  A
C795        C796   1.416       .  A
C796        N797   1.432       .  S
N797       H1069   1.044       .  S
N797       H1070   1.045       .  S
N800       C1061   1.433       .  S
N800       H1071   1.046       .  S
H801       N1065   1.045       .  S
H802       N1065   1.045       .  S
H803       N1068   1.046       .  S
C805        C811   1.541       .  S
C806        H813   1.087       .  S
C806        C807   1.358       .  D
C807        C808   1.536       .  S
C807       C1046   1.479       .  S
C808        C810   1.542       .  S
C808        H814   1.106       .  S
C809        H815   1.081       .  S
C809        C810   1.380       .  D
C810        C822   1.502       .  S
C811        H816   1.080       .  S
C811        C812   1.360       .  D
C812       C1032   1.473       .  S
C817        C818   1.532   1_455  S
C817       C1018   1.539       .  S
C818        H825   1.086       .  S
C818        C819   1.359       .  D
C819        C820   1.537       .  S
C819       C1004   1.479       .  S
C820        H826   1.100       .  S
C821        H827   1.077       .  S
C821        C822   1.378       .  D
C823        H828   1.085       .  S
C823        C824   1.365       .  D
C824        C993   1.492       .  S
O829       Ni835   1.928       .  S
O829        C850   1.269       .  A
O830       Ni853   1.917       .  S
O830        C839   1.272       .  A
O831       Ni835   1.893       .  S
O831       Ni853   1.905       .  S
O831       Ni847   1.917       .  S
O831        H854   0.966       .  S
C832        O849   1.282       .  A
C832        O841   1.278       .  A
C832        C990   1.478       .  S
O833       Ni852   1.923       .  S
O833        C839   1.270       .  A
O834       Ni852   1.899       .  S
O834        C836   1.266       .  A
Ni835       O838   1.919       .  S
Ni835       O840   1.894       .  S
C836        O846   1.270       .  A
C836       C1035   1.470       .  S
O837       Ni853   1.924       .  S
O837        C843   1.278       .  A
O838        C843   1.278       .  A
C839        C979   1.489       .  S
O840        C842   1.269       .  A
O841       Ni852   1.919       .  S
C842        O848   1.273       .  A
C842       C1007   1.480       .  S
C843       C1049   1.481       .  S
H844        O845   0.966       .  S
O845       Ni853   1.909       .  S
O845       Ni847   1.900       .  S
O845       Ni852   1.893       .  S
O846       Ni847   1.932       .  S
Ni847       O851   1.919       .  S
Ni847       O849   1.927       .  S
O848       Ni853   1.934       .  S
C850        O851   1.270       .  A
C850        C962   1.476       .  S
C855        C856   1.538       .  S
C855        C861   1.540       .  S
C855        C859   1.536       .  S
C855        C976   1.538       .  S
C856        H863   1.081       .  S
C856        C857   1.361       .  D
C857        C858   1.538   1_545  S
C857        C951   1.479   1_545  S
C858        C862   1.541   1_565  S
C858        C860   1.550       .  S
C858        H864   1.106       .  S
C859        H865   1.081       .  S
C859        C860   1.376   1_545  D
C860        C872   1.505       .  S
C861        H866   1.087       .  S
C861        C862   1.362       .  D
C862        C937   1.486       .  S
C867        C868   1.533       .  S
C867        C873   1.537       .  S
C867        C871   1.551       .  S
C867        C965   1.538       .  S
C868        H875   1.086       .  S
C868        C869   1.359       .  D
C869        C870   1.536       .  S
C869        C923   1.483       .  S
C870        C874   1.535       .  S
C870        C872   1.548       .  S
C870        H876   1.105       .  S
C871        H877   1.079       .  S
C871        C872   1.381       .  D
C873        H878   1.086       .  S
C873        C874   1.360       .  D
C874        C906   1.482       .  S
O879       Ni885   1.927       .  S
O879        C900   1.272       .  A
O880       Ni903   1.912       .  S
O880        C889   1.269       .  A
O881       Ni885   1.898   1_565  S
O881       Ni903   1.901       .  S
O881        H904   0.967       .  S
C882        O899   1.279   1_565  A
C882        O891   1.280       .  A
C882        C934   1.479       .  S
O884        C886   1.267       .  A
Ni885       O888   1.919       .  S
Ni885       O890   1.909       .  S
C886        O896   1.272       .  A
C886        C909   1.469       .  S
O887       Ni903   1.928       .  S
O887        C893   1.281       .  A
O888        C893   1.278   1_545  A
C889       C1021   1.477       .  S
O891       Ni902   1.930   1_655  S
C892        O898   1.268   1_655  A
C892        C948   1.465       .  S
C893        C920   1.483       .  S
O895       Ni897   1.905       .  S
O896       Ni897   1.932       .  S
Ni897       O901   1.916   1_565  S
C900       C1063   1.494       .  S
C905        C906   1.406       .  A
C905        C910   1.402       .  A
C905        H912   1.084       .  S
C906        C907   1.409       .  A
C907        C908   1.401       .  A
C907        N914   1.431       .  S
C908        C909   1.400       .  A
C908        H913   1.084       .  S
C909        C910   1.410       .  A
C910        N911   1.432       .  S
N911        H915   1.046       .  S
N911        H916   1.045       .  S
N914        H917   1.045       .  S
N914        H918   1.045       .  S
C919        C920   1.405       .  A
C919        C924   1.403       .  A
C919        H926   1.084       .  S
C920        C921   1.413       .  A
C921        C922   1.403       .  A
C921        N928   1.433   1_565  S
C922        C923   1.402       .  A
C922        H927   1.084       .  S
C923        C924   1.410       .  A
C924        N925   1.432       .  S
N925        H929   1.045       .  S
N925        H930   1.045       .  S
N928        H931   1.046       .  S
N928        H932   1.046       .  S
C933        C934   1.403       .  A
C933        C938   1.398       .  A
C933        H940   1.084       .  S
C934        C935   1.413   1_565  A
C935        C936   1.402       .  A
C936        C937   1.406       .  A
C936        H941   1.084       .  S
C937        C938   1.412   1_545  A
C938        N939   1.431       .  S
N939        H943   1.040       .  S
N939        H944   1.046       .  S
N942        H945   1.046       .  S
N942        H946   1.043       .  S
C947        C948   1.401       .  A
C947        C952   1.402       .  A
C947        H954   1.084   1_655  S
C948        C949   1.404       .  A
C949        C950   1.402       .  A
C949        N956   1.432       .  S
C950        C951   1.405       .  A
C950        H955   1.084   1_565  S
C951        C952   1.408       .  A
C952        N953   1.431       .  S
N953        H957   1.046   1_565  S
N953        H958   1.045       .  S
N956        H959   1.046   1_565  S
N956        H960   1.045       .  S
C961        C962   1.395       .  A
C961        C966   1.399       .  A
C961        H968   1.085       .  S
C962        C963   1.417       .  A
C963        C964   1.409       .  A
C963        N970   1.439       .  S
C964        C965   1.411       .  A
C964        H969   1.079       .  S
C965        C966   1.423       .  A
C966        N967   1.434       .  S
N967        H971   1.046       .  S
N967        H972   1.046       .  S
N970        H973   1.043       .  S
N970        H974   1.046       .  S
C975        C976   1.414       .  A
C975        C980   1.406       .  A
C975        H982   1.077       .  S
C976        C977   1.414       .  A
C977        C978   1.401       .  A
C977        N984   1.433       .  S
C978        C979   1.407       .  A
C978        H983   1.084       .  S
C979        C980   1.408       .  A
C980        N981   1.432       .  S
N981        H985   1.046       .  S
N981        H986   1.046       .  S
N984        H987   1.045       .  S
N984        H988   1.046       .  S
C989        C990   1.403       .  A
C989        C994   1.407       .  A
C989        H996   1.084       .  S
C990        C991   1.410       .  A
C991        C992   1.394       .  A
C991        N998   1.431       .  S
C992        C993   1.401       .  A
C992        H997   1.081       .  S
C993        C994   1.416       .  A
C994        N995   1.432       .  S
N995        H999   1.046       .  S
N998       H1001   1.046       .  S
N998       H1002   1.045       .  S
C1003      C1004   1.405       .  A
C1003      C1008   1.411       .  A
C1003      H1010   1.084       .  S
C1004      C1005   1.412       .  A
C1005      C1006   1.388       .  A
C1005      N1012   1.431       .  S
C1006      C1007   1.402       .  A
C1006      H1011   1.084       .  S
C1007      C1008   1.411       .  A
C1008      N1009   1.431       .  S
N1009      H1013   1.045       .  S
N1009      H1014   1.046       .  S
N1012      H1015   1.040       .  S
N1012      H1016   1.041       .  S
C1017      C1022   1.407       .  A
C1018      C1019   1.423   1_455  A
C1019      C1020   1.398       .  A
C1019      N1026   1.432       .  S
C1020      H1025   1.085       .  S
C1021      C1022   1.415       .  A
N1023      H1027   1.046       .  S
N1023      H1028   1.046       .  S
N1026      H1029   1.046       .  S
N1026      H1030   1.046       .  S
C1031      C1032   1.397       .  A
C1031      C1036   1.393       .  A
C1031      H1038   1.085       .  S
C1032      C1033   1.414       .  A
C1033      C1034   1.402       .  A
C1033      N1040   1.433       .  S
C1034      C1035   1.401       .  A
C1034      H1039   1.084       .  S
C1035      C1036   1.411       .  A
C1036      N1037   1.428       .  S
N1037      H1041   1.046       .  S
N1037      H1042   1.044       .  S
N1040      H1043   1.046       .  S
N1040      H1044   1.044       .  S
C1045      C1046   1.402       .  A
C1045      C1050   1.401       .  A
C1045      H1052   1.084       .  S
C1046      C1047   1.406       .  A
C1047      C1048   1.401       .  A
C1047      N1054   1.432       .  S
C1048      C1049   1.405       .  A
C1048      H1053   1.084       .  S
C1049      C1050   1.419       .  A
C1050      N1051   1.433       .  S
N1051      H1055   1.045       .  S
N1051      H1056   1.046       .  S
N1054      H1057   1.045       .  S
N1054      H1058   1.045       .  S
C1059      C1060   1.414       .  A
C1059      C1064   1.403       .  A
C1059      H1066   1.075       .  S
C1060      C1061   1.414       .  A
C1061      C1062   1.402       .  A
C1062      C1063   1.407       .  A
C1063      C1064   1.416       .  A
C1064      N1065   1.432       .  S
