geometry optimzed in LAMMPS
_audit_creation_date              2020-11-30 
_audit_creation_method            'lammps2cif' 
_symmetry_space_group_name_H-M    'P1' 
_symmetry_Int_Tables_number       1 
_symmetry_cell_setting            triclinic 
loop_ 
_symmetry_equiv_pos_as_xyz 
  x,y,z 
_cell_length_a                    37.2999813 
_cell_length_b                    38.33354946372187 
_cell_length_c                    34.91877623220404 
_cell_angle_alpha                 90.90836575450716 
_cell_angle_beta                  91.57795562653641 
_cell_angle_gamma                 89.78972504329558 
loop_ 
_atom_site_label 
_atom_site_type_symbol 
_atom_site_fract_x 
_atom_site_fract_y 
_atom_site_fract_z 
_atom_site_charge 
C1          C  0.29248323  0.75509433  0.03324091     0.88800
C2          C  0.28321383  0.78614748  0.50505687    -0.51400
C3          C  0.25123422  0.78722582  0.48533294     0.11700
C4          C  0.22725357  0.75480949  0.49279594     0.22700
C5          C  0.25941275  0.75504799  0.05961238    -0.52200
C6          C  0.22662722  0.75540748  0.04022227     0.11800
C7          C  0.28289041  0.72250917  0.50338155    -0.51700
C8          C  0.25039208  0.72185505  0.48417532     0.12400
H9          H  0.30305548  0.80667356  0.50295961     0.16900
H10         H  0.20124686  0.75493684  0.47659242     0.02600
H11         H  0.26086279  0.75428245  0.09049520     0.17200
H12         H  0.30152619  0.70068236  0.50237582     0.17000
C13         C  0.25506033  0.79298487  0.21576922     0.88800
C14         C  0.28731504  0.79119287  0.24439022    -0.51400
C15         C  0.28885297  0.76171457  0.26622314     0.11700
C16         C  0.25667128  0.73658703  0.25766356     0.22700
C17         C  0.25844783  0.75836395  0.19274913    -0.52200
C18         C  0.25847350  0.72891231  0.21422232     0.11800
C19         C  0.22200500  0.78836469  0.24002699    -0.51700
C20         C  0.22205264  0.75903254  0.26168750     0.12400
H21         H  0.30914206  0.80985381  0.24465521     0.16900
H22         H  0.25719358  0.71266378  0.27519133     0.02600
H23         H  0.26153832  0.75683573  0.16202823     0.17200
H24         H  0.19974248  0.80673166  0.23942887     0.17000
C25         C  0.77849552  0.24583766  0.46300914     0.88800
C26         C  0.78572895  0.21936690  0.00285232    -0.51400
C27         C  0.76115646  0.22244994  0.03105324     0.11700
C28         C  0.73509495  0.25394694  0.02540189     0.22700
C29         C  0.73848854  0.24308071  0.44867657    -0.52200
C30         C  0.71366532  0.24776431  0.47687466     0.11800
C31         C  0.78397408  0.28217797  0.99311390    -0.51700
C32         C  0.75914027  0.28653857  0.02082794     0.12400
H33         H  0.80461710  0.19777065  0.00177496     0.16900
H34         H  0.71535650  0.25683108  0.04848640     0.02600
H35         H  0.73019478  0.23779402  0.41921805     0.17200
H36         H  0.80131489  0.30329332  0.98471756     0.17000
C37         C  0.80001417  0.26534875  0.22334135     0.88800
C38         C  0.79876706  0.23251224  0.24788477    -0.51400
C39         C  0.76759107  0.22738901  0.26675156     0.11700
C40         C  0.73996780  0.25767737  0.26010721     0.22700
C41         C  0.76594143  0.26269769  0.19711515    -0.52200
C42         C  0.73416236  0.25816322  0.21597315     0.11800
C43         C  0.79183319  0.29497606  0.25205469    -0.51700
C44         C  0.76025266  0.29247184  0.27025633     0.12400
H45         H  0.82056768  0.21372680  0.24870184     0.16900
H46         H  0.71536224  0.25413598  0.27658568     0.02600
H47         H  0.76729565  0.26458559  0.16623103     0.17200
H48         H  0.80845593  0.31761358  0.25714934     0.17000
N49         N  0.09013297  0.75223318  0.11835536    -0.01200
C50         C  0.07856994  0.72435887  0.13880259     0.01400
C51         C  0.07745607  0.73338943  0.17735711    -0.21500
C52         C  0.08179782  0.76863940  0.17987601    -0.21700
C53         C  0.08705316  0.77987546  0.14321605     0.01300
H54         H  0.06943146  0.71716748  0.20065368     0.15100
H55         H  0.07600559  0.78481201  0.20465133     0.15100
N56         N  0.09554191  0.74256482  0.35152418    -0.01200
C57         C  0.08831669  0.71433939  0.37311528     0.01400
C58         C  0.08235474  0.72428989  0.41060595    -0.21500
C59         C  0.08279704  0.75984704  0.41170514    -0.21700
C60         C  0.08907472  0.77047568  0.37486321     0.01300
H61         H  0.07247742  0.70788398  0.43293354     0.15100
H62         H  0.07338617  0.77598596  0.43511688     0.15100
N63         N  0.74057156  0.43191617  0.06291347    -0.01200
C64         C  0.70845507  0.44888887  0.06158355     0.01400
C65         C  0.71001053  0.47882458  0.04026349    -0.21500
C66         C  0.74453938  0.48191017  0.02938975    -0.14500
C67         C  0.76287178  0.45370559  0.04440249     0.01300
H68         H  0.68949843  0.49878093  0.03767167     0.15100
H69         H  0.75604823  0.50467730  0.01656077     0.15100
N70         N  0.73202396  0.43601693  0.31211777    -0.01200
C71         C  0.69939222  0.45218407  0.31072893     0.01400
C72         C  0.69879901  0.47903212  0.28480858    -0.21500
C73         C  0.73287583  0.48236926  0.27266824    -0.21700
C74         C  0.75319814  0.45730288  0.29138264     0.01300
H75         H  0.67745866  0.49787870  0.28034286     0.15100
H76         H  0.74273152  0.50451529  0.25728723     0.15100
N77         N  0.44372657  0.75425050  0.08639082    -0.01200
C78         C  0.46799867  0.77927236  0.07718372     0.01400
C79         C  0.49918678  0.76428463  0.06393385    -0.21500
C80         C  0.49524531  0.72918483  0.06628469    -0.21700
C81         C  0.46173084  0.72372771  0.08063012     0.01300
H82         H  0.52400705  0.77749757  0.05810680     0.15100
H83         H  0.51602477  0.70982743  0.06202158     0.15100
N84         N  0.43468669  0.74255022  0.32246363    -0.01200
C85         C  0.45581789  0.71426327  0.31475219     0.01400
C86         C  0.48625015  0.72359551  0.29589115    -0.21500
C87         C  0.48549321  0.75877066  0.29339454    -0.21700
C88         C  0.45519489  0.77009556  0.31189691     0.01300
H89         H  0.50883719  0.70705285  0.28901236     0.15100
H90         H  0.50802897  0.77458304  0.28543185     0.15100
N91         N  0.75317950  0.11200642  0.14386776    -0.01200
C92         C  0.78152201  0.10045841  0.16612539     0.01400
C93         C  0.77208339  0.09901464  0.20410369    -0.21500
C94         C  0.73681841  0.10759266  0.20538459    -0.21700
C95         C  0.72499829  0.11272356  0.16811537     0.01300
H96         H  0.78723524  0.08768340  0.22765933     0.15100
H97         H  0.72012548  0.10274562  0.22956080     0.15100
N98         N  0.74987232  0.09270010  0.34178386    -0.01200
C99         C  0.72498582  0.09422966  0.36961082     0.01400
C100        C  0.74193627  0.09347812  0.40541649    -0.21500
C101        C  0.77609622  0.08237795  0.39943222    -0.21700
C102        C  0.77857521  0.07760849  0.36026057     0.01300
H103        H  0.72893919  0.09132367  0.43263324     0.15100
H104        H  0.79367595  0.07121132  0.42121114     0.15100
N105        N  0.95058126  0.26674275  0.18759874    -0.01200
C106        C  0.97188767  0.29417099  0.19948141     0.01400
C107        C  0.99705535  0.28362624  0.22676190    -0.21500
C108        C  0.99381621  0.24853699  0.22963806    -0.21700
C109        C  0.96717153  0.23833493  0.20368886     0.01300
H110        H  0.01948378  0.29848024  0.23851897     0.15100
H111        H  0.01333468  0.23176819  0.24374642     0.15100
N112        N  0.89495240  0.24140777  0.35235709    -0.01200
C113        C  0.90148527  0.21057609  0.33385828     0.01400
C114        C  0.90350302  0.21537971  0.29485069    -0.21500
C115        C  0.90194429  0.25039621  0.28922488    -0.21700
C116        C  0.89834741  0.26589677  0.32485950     0.01300
H117        H  0.91097831  0.19604120  0.27365085     0.15100
H118        H  0.90857669  0.26322577  0.26309974     0.15100
Zn119      Zn  0.03137178  0.98622762  0.08971467     1.49700
Zn120      Zn  0.03347234  0.03251711  0.15967845     1.49400
Zn121      Zn  0.97562615  0.04275508  0.09099917     1.49100
Zn122      Zn  0.97079842  0.97466872  0.14564704     1.49500
O123        O  0.00078864  0.00971672  0.12309827    -1.81800
O124        O  0.07621542  0.01230279  0.08820724    -0.72400
O125        O  0.02378106  0.08418750  0.15830858    -0.72300
O126        O  0.97733577  0.02950843  0.03412802    -0.71800
O127        O  0.08462063  0.01512988  0.15061205    -0.72500
O128        O  0.01172092  0.98217068  0.03760669    -0.72100
O129        O  0.98817486  0.09291676  0.10681256    -0.72600
O130        O  0.91763157  0.99089320  0.13762828    -0.72000
O131        O  0.02104230  0.01872760  0.21266881    -0.72800
O132        O  0.92517234  0.04012404  0.10523232    -0.72200
O133        O  0.97835861  0.97887016  0.20281702    -0.72700
O134        O  0.98951626  0.92371839  0.13244841    -0.72600
O135        O  0.04167157  0.93884799  0.10835418    -0.72300
C136        C  0.09586331  0.00687059  0.11755631     0.79400
C137        C  0.00415763  0.10406946  0.13744958     0.79900
C138        C  0.99168857  0.00267733  0.01862907     0.78900
C139        C  0.90567700  0.01973626  0.12384485     0.79300
C140        C  0.99845402  0.99723945  0.22519206     0.80400
C141        C  0.02154013  0.91595208  0.12230277     0.79500
Zn142      Zn  0.96128100  0.95455854  0.33070967     1.49700
Zn143      Zn  0.01588330  0.01964555  0.34666137     1.49400
Zn144      Zn  0.94745133  0.00922452  0.39888912     1.49100
Zn145      Zn  0.00868937  0.95778155  0.40616318     1.49500
O146        O  0.98331390  0.98581735  0.36936510    -1.81800
O147        O  0.97555181  0.96950957  0.27884579    -0.72400
O148        O  0.99957679  0.07078781  0.35895413    -0.72300
O149        O  0.89846267  0.99465055  0.38238394    -0.71800
O150        O  0.01156421  0.01498558  0.28916917    -0.72500
O151        O  0.90640766  0.96326199  0.32877058    -0.72100
O152        O  0.94819278  0.05845391  0.38594060    -0.72600
O153        O  0.00127577  0.97263117  0.45999650    -0.72000
O154        O  0.06838286  0.00453970  0.35800906    -0.72800
O155        O  0.95568271  0.00966276  0.45624461    -0.72200
O156        O  0.06027795  0.96056257  0.39766297    -0.72700
O157        O  0.99933781  0.90728800  0.39806075    -0.72600
O158        O  0.98488567  0.90553436  0.33601332    -0.72300
C159        C  0.99513154  0.99371360  0.26657232     0.79400
C160        C  0.96919954  0.08045361  0.37200716     0.79900
C161        C  0.88650745  0.98122171  0.35105049     0.78900
C162        C  0.97978590  0.99387847  0.47568390     0.79300
C163        C  0.08039420  0.97868155  0.37733965     0.80400
C164        C  0.00062589  0.89225437  0.36540193     0.79500
N165        N  0.24802749  0.91611855  0.11892259    -0.01200
C166        C  0.27839782  0.92280173  0.09997114     0.01400
C167        C  0.27064175  0.92868865  0.06166935    -0.21500
C168        C  0.23416694  0.92915936  0.05758155    -0.21700
C169        C  0.22097454  0.92309687  0.09347102     0.01300
H170        H  0.28902257  0.93826233  0.04082628     0.15100
H171        H  0.21933579  0.93897068  0.03291708     0.15100
N172        N  0.24409475  0.90606427  0.38505255    -0.01200
C173        C  0.21891280  0.91522272  0.35787302     0.01400
C174        C  0.23542647  0.92719030  0.32555214    -0.21500
C175        C  0.27139193  0.92698801  0.33335868    -0.21700
C176        C  0.27609995  0.91492472  0.37013122     0.01300
H177        H  0.22276581  0.93971303  0.30111336     0.15100
H178        H  0.29155046  0.93893979  0.31615181     0.15100
Zn179      Zn  0.54166006  0.98111894  0.13620561     1.49700
Zn180      Zn  0.51562498  0.04180798  0.19523299     1.49400
Zn181      Zn  0.47161104  0.02412307  0.12044264     1.49100
Zn182      Zn  0.47607567  0.97254246  0.19004067     1.49500
O183        O  0.50145092  0.00447713  0.16036383    -1.81800
O184        O  0.58863309  0.00670014  0.15072951    -0.72400
O185        O  0.49423704  0.08736837  0.17946725    -0.72300
O186        O  0.48180853  0.99960571  0.06982039    -0.71800
O187        O  0.56719779  0.05020325  0.18641065    -0.72500
O188        O  0.53902399  0.98560983  0.07937978    -0.72100
O189        O  0.48953303  0.07476792  0.11749065    -0.72600
O190        O  0.42472705  0.97875611  0.18065206    -0.72000
O191        O  0.50650708  0.03155732  0.25120427    -0.72800
O192        O  0.41902221  0.01328148  0.13003677    -0.72200
O193        O  0.48688199  0.97688608  0.24606464    -0.72700
O194        O  0.48353433  0.92479934  0.16960824    -0.72600
O195        O  0.53438626  0.92781298  0.13790776    -0.72300
C196        C  0.59260435  0.03631430  0.16791074     0.79400
C197        C  0.49886591  0.09570567  0.14487121     0.79900
C198        C  0.51153708  0.98832027  0.05747109     0.78900
C199        C  0.40587991  0.99205437  0.15383853     0.79300
C200        C  0.49674733  0.00317941  0.26627939     0.80400
C201        C  0.50663374  0.91099244  0.14805825     0.79500
Zn202      Zn  0.48869525  0.94856538  0.44037776     1.49700
Zn203      Zn  0.47564394  0.01637685  0.38828589     1.49400
Zn204      Zn  0.54596649  0.00390579  0.44445260     1.49100
Zn205      Zn  0.54006839  0.96197070  0.37052545     1.49500
O206        O  0.51152263  0.98300612  0.40975041    -1.81800
O207        O  0.43739115  0.94857985  0.42817598    -0.72400
O208        O  0.48669357  0.06628241  0.40943749    -0.72300
O209        O  0.54109926  0.99318257  0.49941989    -0.71800
O210        O  0.42387871  0.99702737  0.39681618    -0.72500
O211        O  0.49220436  0.96037864  0.49706066    -0.72100
O212        O  0.53603826  0.05287724  0.44264008    -0.72600
O213        O  0.59027502  0.98365549  0.36868625    -0.72000
O214        O  0.48165867  0.01865453  0.33021271    -0.72800
O215        O  0.59621781  0.00406135  0.42817092    -0.72200
O216        O  0.52037795  0.97544663  0.31994247    -0.72700
O217        O  0.53120062  0.91034980  0.37014352    -0.72600
O218        O  0.50097563  0.89983319  0.42314295    -0.72300
C219        C  0.41463609  0.96794099  0.41135481     0.79400
C220        C  0.51430901  0.07536160  0.42978391     0.79900
C221        C  0.51524757  0.97872291  0.51574406     0.78900
C222        C  0.60709757  0.00192241  0.39411621     0.79300
C223        C  0.49954202  0.99917150  0.30769851     0.80400
C224        C  0.51202783  0.89048816  0.39027254     0.79500
N225        N  0.59596424  0.24263747  0.13494724    -0.01200
C226        C  0.58629691  0.27048819  0.11321441     0.01400
C227        C  0.57765439  0.25985988  0.07628261    -0.21500
C228        C  0.57900000  0.22435017  0.07566549    -0.21700
C229        C  0.58766757  0.21422169  0.11248078     0.01300
H230        H  0.56483323  0.27570627  0.05463502     0.15100
H231        H  0.56785044  0.20780057  0.05315921     0.15100
N232        N  0.55749566  0.24500259  0.46731044    -0.01200
C233        C  0.53528845  0.27042079  0.48087347     0.01400
C234        C  0.50850851  0.25677379  0.50263035    -0.21500
C235        C  0.51254738  0.22167166  0.50109523    -0.21700
C236        C  0.54172877  0.21501279  0.47866912     0.01300
H237        H  0.48554630  0.27051724  0.51383142     0.15100
H238        H  0.49350291  0.20280016  0.51099873     0.15100
Zn239      Zn  0.97222090  0.52853896  0.11370034     1.49700
Zn240      Zn  0.04467317  0.48674029  0.11666474     1.49400
Zn241      Zn  0.98454949  0.46551105  0.05554617     1.49100
Zn242      Zn  0.02463843  0.53453401  0.04548492     1.49500
O243        O  0.00650438  0.50384949  0.08298254    -1.81800
O244        O  0.97863957  0.51107394  0.16804203    -0.72400
O245        O  0.03894290  0.43422486  0.12361286    -0.72300
O246        O  0.93220224  0.47111092  0.05643920    -0.71800
O247        O  0.03758789  0.50270342  0.17053058    -0.72500
O248        O  0.92040201  0.51588470  0.09557043    -0.72100
O249        O  0.99305821  0.42154173  0.08376649    -0.72600
O250        O  0.00810049  0.52006379  0.99245774    -0.72000
O251        O  0.09285533  0.50728104  0.10315855    -0.72800
O252        O  0.99548922  0.46382494  0.99954558    -0.72200
O253        O  0.07807149  0.53823310  0.05170273    -0.72700
O254        O  0.01168949  0.58401251  0.05570810    -0.72600
O255        O  0.98741874  0.58061791  0.11279597    -0.72300
C256        C  0.00764888  0.50456416  0.18679154     0.79400
C257        C  0.01413320  0.41353791  0.11148976     0.79900
C258        C  0.91004458  0.49090463  0.07311968     0.78900
C259        C  0.99944184  0.49029509  0.97848839     0.79300
C260        C  0.10080145  0.52931042  0.07766637     0.80400
C261        C  0.00347787  0.59815338  0.08740513     0.79500
Zn262      Zn  0.96905018  0.52622834  0.36227706     1.49700
Zn263      Zn  0.96763336  0.46957579  0.29408093     1.49400
Zn264      Zn  0.03623103  0.51090969  0.30684074     1.49100
Zn265      Zn  0.01476323  0.45516037  0.36780295     1.49500
O266        O  0.99644202  0.49095791  0.33348893    -1.81800
O267        O  0.91355322  0.51926578  0.35042880    -0.72400
O268        O  0.97851301  0.48512687  0.24131339    -0.72300
O269        O  0.03602086  0.56119014  0.31659201    -0.71800
O270        O  0.91820676  0.48200597  0.30149232    -0.72500
O271        O  0.98998433  0.57550509  0.35259302    -0.72100
O272        O  0.03376106  0.50573241  0.24930291    -0.72600
O273        O  0.06750331  0.46577312  0.37905289    -0.72000
O274        O  0.96508091  0.41817385  0.29986474    -0.72800
O275        O  0.08361445  0.49987115  0.33155279    -0.72200
O276        O  0.99575985  0.40636490  0.35349164    -0.72700
O277        O  0.99748066  0.46263762  0.42053946    -0.72600
O278        O  0.98032464  0.51821183  0.41891244    -0.72300
C279        C  0.89920362  0.49978968  0.32398505     0.79400
C280        C  0.00660603  0.49829215  0.22790108     0.79900
C281        C  0.01863885  0.58374089  0.33539739     0.78900
C282        C  0.08937698  0.48716171  0.36455869     0.79300
C283        C  0.97380223  0.39720362  0.32643653     0.80400
C284        C  0.99011967  0.49118282  0.43738024     0.79500
N285        N  0.25822323  0.60306430  0.12144666    -0.01200
C286        C  0.23263269  0.60825354  0.09368465     0.01400
C287        C  0.24838800  0.61209139  0.05866776    -0.21500
C288        C  0.28325766  0.60192964  0.06363415    -0.21700
C289        C  0.28715767  0.59204667  0.10146065     0.01300
H290        H  0.23472567  0.61417375  0.03117486     0.15100
H291        H  0.30154589  0.59718866  0.04075178     0.15100
N292        N  0.22260756  0.57788992  0.45111000    -0.01200
C293        C  0.19318755  0.56016385  0.46274292     0.01400
C294        C  0.20207659  0.54043582  0.49454197    -0.21500
C295        C  0.23835884  0.54165028  0.49897531    -0.21700
C296        C  0.25065639  0.56244981  0.47026618     0.01300
H297        H  0.18571111  0.52084866  0.50750459     0.15100
H298        H  0.25395358  0.52300530  0.51533984     0.15100
Zn299      Zn  0.46444183  0.52439028  0.18035359     1.49700
Zn300      Zn  0.52045640  0.52312817  0.11590626     1.49400
Zn301      Zn  0.52632392  0.47085329  0.18415904     1.49100
Zn302      Zn  0.46461209  0.45966319  0.11870021     1.49500
O303        O  0.49335533  0.49410858  0.14900418    -1.81800
O304        O  0.46936870  0.57593114  0.16998034    -0.72400
O305        O  0.57155384  0.50842946  0.12042760    -0.72300
O306        O  0.50886464  0.47173193  0.23809453    -0.71800
O307        O  0.50721133  0.57352377  0.12183735    -0.72500
O308        O  0.46526439  0.51137433  0.23532428    -0.72100
O309        O  0.57816551  0.48397525  0.17763469    -0.72600
O310        O  0.48533990  0.40907466  0.12702247    -0.72000
O311        O  0.50838624  0.51410098  0.06071834    -0.72800
O312        O  0.52926389  0.42175456  0.16904623    -0.72200
O313        O  0.47059339  0.46962520  0.06224557    -0.72700
O314        O  0.41027394  0.46969284  0.12611382    -0.72600
O315        O  0.41551173  0.51696694  0.16354631    -0.72300
C316        C  0.48473955  0.59010832  0.14212215     0.79400
C317        C  0.59015880  0.49152156  0.14499493     0.79900
C318        C  0.48356376  0.48875211  0.25358484     0.78900
C319        C  0.51349411  0.40021900  0.14661730     0.79300
C320        C  0.48816576  0.49198550  0.04372866     0.80400
C321        C  0.39659141  0.49636337  0.14299080     0.79500
Zn322      Zn  0.49989863  0.45314903  0.36851450     1.49700
Zn323      Zn  0.51316930  0.52036362  0.42377823     1.49400
Zn324      Zn  0.44360901  0.51127335  0.36505598     1.49100
Zn325      Zn  0.44810565  0.46499546  0.43559820     1.49500
O326        O  0.47694152  0.48827553  0.39926890    -1.81800
O327        O  0.55112042  0.45550108  0.37787705    -0.72400
O328        O  0.50276212  0.57098780  0.40528509    -0.72300
O329        O  0.45190701  0.50133315  0.30965850    -0.71800
O330        O  0.56501322  0.50369559  0.41054752    -0.72500
O331        O  0.49581147  0.46219164  0.31276239    -0.72100
O332        O  0.45469478  0.56005119  0.36792823    -0.72600
O333        O  0.39642897  0.48137669  0.43479016    -0.72000
O334        O  0.50881332  0.51773492  0.48220275    -0.72800
O335        O  0.39270411  0.51164154  0.38102919    -0.72200
O336        O  0.46569153  0.47816959  0.48686439    -0.72700
O337        O  0.45838391  0.41385974  0.43542369    -0.72600
O338        O  0.49029224  0.40463008  0.38337894    -0.72300
C339        C  0.57437867  0.47571762  0.39281762     0.79400
C340        C  0.47737411  0.58102743  0.38253230     0.79900
C341        C  0.47628133  0.48334491  0.29390651     0.78900
C342        C  0.37928410  0.50130838  0.41185508     0.79300
C343        C  0.48883875  0.49844421  0.50213196     0.80400
C344        C  0.47805248  0.39439297  0.41481500     0.79500
C345        C  0.28111855  0.51764827  0.42978829     0.25900
C346        C  0.28280717  0.54964875  0.45038760    -0.22200
C347        C  0.31612831  0.56584946  0.45656218     0.20800
C348        C  0.34729957  0.54993950  0.44328870     0.25800
C349        C  0.34565808  0.51744296  0.42402870    -0.22100
C350        C  0.31241877  0.50157929  0.41684272     0.20700
F351        F  0.31040300  0.47032523  0.39810878    -0.12100
F352        F  0.24923350  0.50121757  0.42375913    -0.14500
F353        F  0.37938207  0.56589314  0.44996218    -0.14500
F354        F  0.31858423  0.59686794  0.47564852    -0.12100
C355        C  0.31870502  0.55596592  0.15235417     0.25900
C356        C  0.31016245  0.56164675  0.11343713    -0.22200
C357        C  0.32302710  0.53699430  0.08619310     0.20800
C358        C  0.34748639  0.51096238  0.09699408     0.25800
C359        C  0.35955343  0.50857358  0.13513642    -0.22100
C360        C  0.34291490  0.52962211  0.16305084     0.20700
F361        F  0.35314366  0.52712893  0.20055178    -0.12100
F362        F  0.30562338  0.57714352  0.18015105    -0.14500
F363        F  0.36244672  0.49080606  0.06932382    -0.14500
F364        F  0.31297746  0.53808669  0.04866352    -0.12100
C365        C  0.11067263  0.51066306  0.42809991     0.25900
C366        C  0.11803041  0.50332560  0.38941595    -0.22200
C367        C  0.14849302  0.51874451  0.37376705     0.20800
C368        C  0.17185643  0.53951175  0.39670901     0.25800
C369        C  0.16486220  0.54595955  0.43570576    -0.22100
C370        C  0.13330676  0.53211103  0.45054872     0.20700
F371        F  0.12445600  0.53904365  0.48731241    -0.12100
F372        F  0.08037643  0.49858687  0.44397146    -0.14500
F373        F  0.20185647  0.55228418  0.38093180    -0.14500
F374        F  0.15577282  0.51357977  0.33622346    -0.12100
C375        C  0.13840676  0.58185246  0.06453797     0.25900
C376        C  0.13550300  0.54844142  0.08079768    -0.22200
C377        C  0.16406410  0.53636848  0.10428199     0.20800
C378        C  0.19492334  0.55666538  0.11045793     0.25800
C379        C  0.19772562  0.58977544  0.09373719    -0.22100
C380        C  0.16880212  0.60239135  0.07155909     0.20700
F381        F  0.17011601  0.63480266  0.05655503    -0.12100
F382        F  0.11148222  0.59529132  0.04240602    -0.14500
F383        F  0.22247853  0.54329067  0.13184352    -0.14500
F384        F  0.16244178  0.50467817  0.12094241    -0.12100
C385        C  0.52275606  0.30596504  0.42313813     0.25900
C386        C  0.52885768  0.30435243  0.46296268    -0.22200
C387        C  0.51848912  0.33246569  0.48638577     0.20800
C388        C  0.50035403  0.36082391  0.47068863     0.25800
C389        C  0.49243209  0.36183128  0.43101179    -0.22100
C390        C  0.50479437  0.33462584  0.40722087     0.20700
F391        F  0.49869693  0.33537469  0.36873075    -0.12100
F392        F  0.53182358  0.27873336  0.39999037    -0.14500
F393        F  0.49148713  0.38777557  0.49437753    -0.14500
F394        F  0.52443278  0.33157887  0.52493398    -0.12100
C395        C  0.56919126  0.36329010  0.14551803     0.25900
C396        C  0.53124733  0.36555999  0.14198361    -0.22200
C397        C  0.51182818  0.33501922  0.13347305     0.20800
C398        C  0.52993705  0.30334081  0.12724968     0.25800
C399        C  0.56781234  0.30174445  0.12868059    -0.22100
C400        C  0.58717997  0.33181012  0.13854401     0.20700
F401        F  0.62359831  0.33115591  0.13945406    -0.12100
F402        F  0.58927626  0.39204391  0.15379385    -0.14500
F403        F  0.51053040  0.27430891  0.11821561    -0.14500
F404        F  0.47545735  0.33579350  0.13113230    -0.12100
C405        C  0.55078356  0.11962605  0.46708550     0.25900
C406        C  0.52346164  0.11222690  0.43901737    -0.22200
C407        C  0.50745320  0.14013020  0.41921332     0.20800
C408        C  0.51695593  0.17451449  0.42899656     0.25800
C409        C  0.54268279  0.18136604  0.45841959    -0.22100
C410        C  0.56039989  0.15379593  0.47617114     0.20700
F411        F  0.58554072  0.16008638  0.50418239    -0.12100
F412        F  0.56742579  0.09395846  0.48730837    -0.14500
F413        F  0.49917769  0.20127698  0.41182102    -0.14500
F414        F  0.48211199  0.13430724  0.39121707    -0.12100
C415        C  0.54790084  0.12415291  0.10944838     0.25900
C416        C  0.52117159  0.12680591  0.13710143    -0.22200
C417        C  0.52042209  0.15690511  0.16080592     0.20800
C418        C  0.54422397  0.18462482  0.15514916     0.25800
C419        C  0.57009388  0.18227251  0.12656021    -0.22100
C420        C  0.57244688  0.15118475  0.10488929     0.20700
F421        F  0.59820867  0.14741261  0.07845069    -0.12100
F422        F  0.55108063  0.09482060  0.08746592    -0.14500
F423        F  0.54058307  0.21446008  0.17617396    -0.14500
F424        F  0.49591965  0.15996000  0.18869852    -0.12100
C425        C  0.31298887  0.96195813  0.40079296     0.25900
C426        C  0.30835982  0.92606453  0.39247367    -0.22200
C427        C  0.33816113  0.90393120  0.39431373     0.20800
C428        C  0.37240417  0.91761955  0.40189689     0.25800
C429        C  0.37755774  0.95401458  0.40718564    -0.22100
C430        C  0.34735065  0.97587922  0.40774220     0.20700
F431        F  0.35115250  0.01072273  0.41401148    -0.12100
F432        F  0.28441180  0.98397200  0.39887101    -0.14500
F433        F  0.40085353  0.89541321  0.40104731    -0.14500
F434        F  0.33447339  0.86947073  0.38553146    -0.12100
C435        C  0.33417993  0.92393862  0.14061569     0.25900
C436        C  0.30844708  0.94174672  0.11875808    -0.22200
C437        C  0.31227398  0.97794550  0.11312680     0.20800
C438        C  0.34306932  0.99538976  0.12651701     0.25800
C439        C  0.36983134  0.97716587  0.14689370    -0.22100
C440        C  0.36442180  0.94146725  0.15498328     0.20700
F441        F  0.38992962  0.92244049  0.17381816    -0.12100
F442        F  0.33123271  0.88908448  0.14602335    -0.14500
F443        F  0.34723666  0.02965516  0.11847966    -0.14500
F444        F  0.28670549  0.99615752  0.09340406    -0.12100
C445        C  0.12472104  0.94766706  0.33821293     0.25900
C446        C  0.11701646  0.96521300  0.37257626    -0.22200
C447        C  0.14086029  0.96190978  0.40417153     0.20800
C448        C  0.17332287  0.94365112  0.40050509     0.25800
C449        C  0.18159411  0.92676046  0.36564795    -0.22100
C450        C  0.15622348  0.92812171  0.33498834     0.20700
F451        F  0.16232917  0.91106316  0.30138967    -0.12100
F452        F  0.10085839  0.94827192  0.30812640    -0.14500
F453        F  0.19725817  0.94415196  0.43042952    -0.14500
F454        F  0.13285312  0.97674357  0.43845920    -0.12100
C455        C  0.18712998  0.96520997  0.13440867     0.25900
C456        C  0.18715972  0.93981835  0.10470248    -0.22200
C457        C  0.15685276  0.93619005  0.08047544     0.20800
C458        C  0.12781524  0.95870027  0.08426598     0.25800
C459        C  0.12803479  0.98489335  0.11317010    -0.22100
C460        C  0.15752992  0.98733841  0.13885614     0.20700
F461        F  0.15844811  0.01220722  0.16698072    -0.12100
F462        F  0.21665928  0.97037407  0.15736570    -0.14500
F463        F  0.09931267  0.95453621  0.05958611    -0.14500
F464        F  0.15602905  0.91165156  0.05196331    -0.12100
C465        C  0.90286564  0.32784062  0.30640777     0.25900
C466        C  0.91298021  0.30139420  0.33173561    -0.22200
C467        C  0.94290408  0.30676175  0.35654568     0.20800
C468        C  0.96329273  0.33745911  0.35462950     0.25800
C469        C  0.95436749  0.36320079  0.32747599    -0.22100
C470        C  0.92326288  0.35807785  0.30392247     0.20700
F471        F  0.91200107  0.38241368  0.27838238    -0.12100
F472        F  0.87361612  0.32375755  0.28287912    -0.14500
F473        F  0.99214936  0.34151377  0.37879708    -0.14500
F474        F  0.95374404  0.28141651  0.38102960    -0.12100
C475        C  0.90437698  0.15713555  0.37404169     0.25900
C476        C  0.92163027  0.18121532  0.35145217    -0.22200
C477        C  0.95743952  0.17466345  0.34115358     0.20800
C478        C  0.97410984  0.14272868  0.34951466     0.25800
C479        C  0.95565658  0.11711443  0.36945461    -0.22100
C480        C  0.92127900  0.12572014  0.38354412     0.20700
F481        F  0.90280450  0.10301919  0.40494894    -0.12100
F482        F  0.87028757  0.16299147  0.38507434    -0.14500
F483        F  0.00747975  0.13638700  0.33641596    -0.14500
F484        F  0.97575700  0.19872336  0.32138060    -0.12100
C485        C  0.97508748  0.32562008  0.13651009     0.25900
C486        C  0.97910078  0.32599155  0.17671408    -0.22200
C487        C  0.99504901  0.35545252  0.19487695     0.20800
C488        C  0.00876634  0.38257820  0.17340888     0.25800
C489        C  0.00586730  0.38167609  0.13313734    -0.22100
C490        C  0.98821480  0.35319057  0.11500500     0.20700
F491        F  0.98364770  0.35201109  0.07629999    -0.12100
F492        F  0.95903458  0.29837424  0.11778280    -0.14500
F493        F  0.02315027  0.41067859  0.19230795    -0.14500
F494        F  0.99692078  0.35833930  0.23370588    -0.12100
C495        C  0.97530364  0.17399656  0.20737918     0.25900
C496        C  0.97192096  0.20370617  0.18457109    -0.22200
C497        C  0.98010635  0.20077499  0.14540774     0.20800
C498        C  0.99120312  0.16861652  0.12957775     0.25800
C499        C  0.99527538  0.13921449  0.15291058    -0.22100
C500        C  0.98689446  0.14231708  0.19190111     0.20700
F501        F  0.98908225  0.11425950  0.21515032    -0.12100
F502        F  0.96842140  0.17590175  0.24526914    -0.14500
F503        F  0.99924012  0.16653771  0.09193652    -0.14500
F504        F  0.97895179  0.22928299  0.12290144    -0.12100
C505        C  0.63587705  0.06029321  0.39853593     0.25900
C506        C  0.63624733  0.02589646  0.38348532    -0.22200
C507        C  0.66255732  0.01670819  0.35713355     0.20800
C508        C  0.68990169  0.04045458  0.34889209     0.25800
C509        C  0.69102847  0.07389381  0.36668262    -0.22100
C510        C  0.66274195  0.08394500  0.39008184     0.20700
F511        F  0.66243174  0.11617641  0.40681980    -0.12100
F512        F  0.60933845  0.07120235  0.42174050    -0.14500
F513        F  0.71644759  0.02979697  0.32559499    -0.14500
F514        F  0.66293370  0.98425364  0.34103781    -0.12100
C515        C  0.84935671  0.02194958  0.31324629     0.25900
C516        C  0.85059895  0.99351643  0.33844662    -0.22200
C517        C  0.82165265  0.98852400  0.36245837     0.20800
C518        C  0.79497967  0.01413420  0.36550175     0.25800
C519        C  0.79759785  0.04587919  0.34561255    -0.22100
C520        C  0.82317662  0.04818516  0.31704351     0.20700
F521        F  0.82542696  0.07737424  0.29581992    -0.12100
F522        F  0.87681809  0.02722321  0.28928414    -0.14500
F523        F  0.76855147  0.00940227  0.39089264    -0.14500
F524        F  0.82163211  0.96100520  0.38646284    -0.12100
C525        C  0.65909213  0.11154334  0.17561190     0.25900
C526        C  0.68950168  0.09713883  0.15873543    -0.22200
C527        C  0.68741395  0.06329302  0.14255279     0.20800
C528        C  0.65609093  0.04345039  0.14525976     0.25800
C529        C  0.62624010  0.05695631  0.16452005    -0.22100
C530        C  0.62783449  0.09190181  0.17841602     0.20700
F531        F  0.59944028  0.10722692  0.19556558    -0.12100
F532        F  0.66051815  0.14402907  0.19170277    -0.14500
F533        F  0.65558275  0.01062253  0.13010787    -0.14500
F534        F  0.71664574  0.04833986  0.12673725    -0.12100
C535        C  0.87184027  0.05487560  0.16931925     0.25900
C536        C  0.87111973  0.03469467  0.13547655    -0.22200
C537        C  0.84192620  0.03842004  0.10946984     0.20800
C538        C  0.81299041  0.06067439  0.11832230     0.25800
C539        C  0.81369958  0.08077701  0.15259257    -0.22100
C540        C  0.84413965  0.07816176  0.17730675     0.20700
F541        F  0.84770247  0.09892048  0.20905504    -0.12100
F542        F  0.90093008  0.05384287  0.19359749    -0.14500
F543        F  0.78437874  0.06225615  0.09356808    -0.14500
F544        F  0.84177674  0.02099034  0.07532915    -0.12100
C545        C  0.45101333  0.67592422  0.37242336     0.25900
C546        C  0.45417434  0.67954760  0.33252070    -0.22200
C547        C  0.46541644  0.65075137  0.31057673     0.20800
C548        C  0.47590346  0.61997770  0.32806930     0.25800
C549        C  0.47434900  0.61658032  0.36794858    -0.22100
C550        C  0.46079584  0.64434801  0.39004100     0.20700
F551        F  0.45631047  0.64058976  0.42820038    -0.12100
F552        F  0.43971511  0.70309338  0.39438918    -0.14500
F553        F  0.48696768  0.59283624  0.30577095    -0.14500
F554        F  0.46752018  0.65294898  0.27193376    -0.12100
C555        C  0.46819921  0.83299635  0.31403188     0.25900
C556        C  0.45978030  0.80293770  0.33417453    -0.22200
C557        C  0.46773004  0.80195897  0.37387421     0.20800
C558        C  0.48539170  0.83000403  0.39253254     0.25800
C559        C  0.49635512  0.85892794  0.37151157    -0.22100
C560        C  0.48656124  0.86042960  0.33223328     0.20700
F561        F  0.49426060  0.88883195  0.31122407    -0.12100
F562        F  0.46103139  0.83455418  0.27574575    -0.14500
F563        F  0.49297700  0.82826366  0.43071122    -0.14500
F564        F  0.46078199  0.77289257  0.39401613    -0.12100
C565        C  0.45404238  0.66021572  0.07440417     0.25900
C566        C  0.45386663  0.69000860  0.09813417    -0.22200
C567        C  0.45947980  0.68629948  0.13794962     0.20800
C568        C  0.46849031  0.65358495  0.15320428     0.25800
C569        C  0.47244638  0.62456480  0.12861556    -0.22100
C570        C  0.46324846  0.62783916  0.08945163     0.20700
F571        F  0.46420418  0.59965633  0.06539719    -0.12100
F572        F  0.44861182  0.66310912  0.03596264    -0.14500
F573        F  0.47608237  0.65087812  0.19125590    -0.14500
F574        F  0.46012570  0.71490628  0.16137428    -0.12100
C575        C  0.46706285  0.82026086  0.13383493     0.25900
C576        C  0.47038141  0.81499267  0.09411007    -0.22200
C577        C  0.48605283  0.84147669  0.07270427     0.20800
C578        C  0.49967630  0.87170647  0.09072263     0.25800
C579        C  0.49758686  0.87647593  0.13062957    -0.22100
C580        C  0.48009636  0.85090741  0.15181058     0.20700
F581        F  0.47640284  0.85525180  0.19016369    -0.12100
F582        F  0.45345448  0.79480755  0.15570155    -0.14500
F583        F  0.51382898  0.89691000  0.06885282    -0.14500
F584        F  0.48944974  0.83732415  0.03426530    -0.12100
C585        C  0.80383608  0.47001679  0.33928892     0.25900
C586        C  0.79141068  0.46556207  0.30093591    -0.22200
C587        C  0.81334411  0.47677159  0.27149991     0.20800
C588        C  0.84677234  0.49164715  0.27989351     0.25800
C589        C  0.86001589  0.49485771  0.31797343    -0.22100
C590        C  0.83810260  0.48408181  0.34770341     0.20700
F591        F  0.85036523  0.48583191  0.38464041    -0.12100
F592        F  0.78241683  0.46195032  0.36863951    -0.14500
F593        F  0.86700563  0.50200492  0.25038954    -0.14500
F594        F  0.80207528  0.47373473  0.23426901    -0.12100
C595        C  0.65098997  0.42650051  0.34955144     0.25900
C596        C  0.67461397  0.45384118  0.34314484    -0.22200
C597        C  0.66974243  0.48596531  0.36281542     0.20800
C598        C  0.63866490  0.49237143  0.38343074     0.25800
C599        C  0.61234611  0.46648476  0.38524766    -0.22100
C600        C  0.62048778  0.43250652  0.37117933     0.20700
F601        F  0.59718414  0.40573854  0.37520332    -0.12100
F602        F  0.65530648  0.39509965  0.33174650    -0.14500
F603        F  0.63278598  0.52487204  0.39797885    -0.14500
F604        F  0.69346848  0.51237625  0.35886616    -0.12100
C605        C  0.82416634  0.46412092  0.02155416     0.25900
C606        C  0.80182921  0.45678741  0.05208818    -0.22200
C607        C  0.81505247  0.46171289  0.08993697     0.20800
C608        C  0.84975653  0.47475591  0.09699984     0.25800
C609        C  0.87178614  0.48268443  0.06633206    -0.22100
C610        C  0.85889124  0.47661068  0.02858768     0.20700
F611        F  0.87983598  0.48343219  0.99841192    -0.12100
F612        F  0.81173472  0.46036141  0.98479588    -0.14500
F613        F  0.86211506  0.47892985  0.13371607    -0.14500
F614        F  0.79371318  0.45577303  0.12000368    -0.12100
C615        C  0.64665040  0.43721142  0.08014631     0.25900
C616        C  0.68137931  0.44739445  0.09132639    -0.22200
C617        C  0.68657019  0.46803657  0.12490119     0.20800
C618        C  0.65702170  0.48120964  0.14467410     0.25800
C619        C  0.62226506  0.47372194  0.13088590    -0.22100
C620        C  0.61733636  0.45022981  0.09978573     0.20700
F621        F  0.58374392  0.44183263  0.08674976    -0.12100
F622        F  0.64093257  0.41796493  0.04758182    -0.14500
F623        F  0.66230204  0.50374091  0.17466310    -0.14500
F624        F  0.71998139  0.47905597  0.13552729    -0.12100
C625        C  0.04070174  0.80327737  0.33880704     0.25900
C626        C  0.07240372  0.80358770  0.36192565    -0.22200
C627        C  0.08177880  0.83424691  0.38195079     0.20800
C628        C  0.05845793  0.86273952  0.38226708     0.25800
C629        C  0.02527174  0.86176318  0.36177997    -0.22100
C630        C  0.01747015  0.83241457  0.33837309     0.20700
F631        F  0.98629592  0.83088485  0.31744887    -0.12100
F632        F  0.03057701  0.77374999  0.31951448    -0.14500
F633        F  0.06813346  0.89108472  0.40379436    -0.14500
F634        F  0.11238008  0.83550775  0.40394338    -0.12100
C635        C  0.01526932  0.64778376  0.35314653     0.25900
C636        C  0.03494498  0.61909925  0.33954277    -0.22200
C637        C  0.07211946  0.62357193  0.33312655     0.20800
C638        C  0.08922595  0.65522139  0.34201710     0.25800
C639        C  0.06977097  0.68308604  0.35719020    -0.22100
C640        C  0.03245115  0.67952576  0.36153874     0.20700
F641        F  0.01281965  0.70656343  0.37545183    -0.12100
F642        F  0.97964361  0.64492947  0.35935818    -0.14500
F643        F  0.12521537  0.65790808  0.33800664    -0.14500
F644        F  0.09275480  0.59667456  0.32060429    -0.12100
C645        C  0.07399118  0.87749864  0.13875124     0.25900
C646        C  0.03749382  0.88046976  0.12712395    -0.22200
C647        C  0.01832145  0.84978408  0.11802839     0.20800
C648        C  0.03534837  0.81698478  0.12048595     0.25800
C649        C  0.07168916  0.81427723  0.13247848    -0.22100
C650        C  0.09067674  0.84481984  0.14179570     0.20700
F651        F  0.12520001  0.84289530  0.15501630    -0.12100
F652        F  0.09333655  0.90637865  0.14858979    -0.14500
F653        F  0.01592907  0.78767967  0.11282850    -0.14500
F654        F  0.98335245  0.85152582  0.10638961    -0.12100
C655        C  0.06347151  0.67863576  0.08668112     0.25900
C656        C  0.05633701  0.69450154  0.12232519    -0.22200
C657        C  0.02653418  0.68174190  0.14240927     0.20800
C658        C  0.00799806  0.65175140  0.13000164     0.25800
C659        C  0.01721103  0.63419091  0.09617691    -0.22100
C660        C  0.04393935  0.64924491  0.07358897     0.20700
F661        F  0.05233388  0.63487841  0.03920135    -0.12100
F662        F  0.08991251  0.69066270  0.06461332    -0.14500
F663        F  0.98114149  0.63971403  0.15164084    -0.14500
F664        F  0.01428949  0.69849111  0.17398568    -0.12100
C665        C  0.78695226  0.14506906  0.32495875     0.25900
C666        C  0.75481009  0.12549037  0.32111776    -0.22200
C667        C  0.72592022  0.14117173  0.30047402     0.20800
C668        C  0.72929999  0.17450081  0.28383639     0.25800
C669        C  0.76158786  0.19354173  0.28768050    -0.22100
C670        C  0.79010884  0.17805152  0.30870123     0.20700
F671        F  0.82166663  0.19501045  0.31415530    -0.12100
F672        F  0.81566095  0.13315129  0.34553898    -0.14500
F673        F  0.70129514  0.18748497  0.26285923    -0.14500
F674        F  0.69420100  0.12410608  0.29640600    -0.12100
C675        C  0.72236345  0.34678806  0.26456196     0.25900
C676        C  0.74533306  0.32581066  0.28722944    -0.22200
C677        C  0.76214631  0.34167598  0.31984783     0.20800
C678        C  0.75645563  0.37723669  0.32923656     0.25800
C679        C  0.73432433  0.39829265  0.30590638    -0.22100
C680        C  0.71682123  0.38226272  0.27377471     0.20700
F681        F  0.69611443  0.40163732  0.24956624    -0.12100
F682        F  0.70837462  0.33412911  0.23090842    -0.14500
F683        F  0.77393854  0.39142483  0.36022080    -0.14500
F684        F  0.78635851  0.32345153  0.34115254    -0.12100
C685        C  0.66193285  0.23189475  0.14030046     0.25900
C686        C  0.62983385  0.24397286  0.15664566    -0.22200
C687        C  0.63213412  0.26015719  0.19290850     0.20800
C688        C  0.66551367  0.26452934  0.21233291     0.25800
C689        C  0.69791058  0.25295675  0.19580666    -0.22100
C690        C  0.69519431  0.23584586  0.15970612     0.20700
F691        F  0.72464862  0.22211923  0.14312039    -0.12100
F692        F  0.66135922  0.21705254  0.10475036    -0.14500
F693        F  0.66573455  0.28119831  0.24684513    -0.14500
F694        F  0.60190272  0.27233131  0.20931011    -0.12100
C695        C  0.85271333  0.23932551  0.18561569     0.25900
C696        C  0.83609941  0.26886387  0.20212899    -0.22200
C697        C  0.85558241  0.30041271  0.20101595     0.20800
C698        C  0.89250259  0.30049067  0.19392490     0.25800
C699        C  0.91108547  0.26929150  0.18424811    -0.22100
C700        C  0.88934730  0.23953457  0.17662540     0.20700
F701        F  0.90318400  0.21007897  0.16107896    -0.12100
F702        F  0.83379984  0.20949644  0.17947967    -0.14500
F703        F  0.90973053  0.33136413  0.19857991    -0.14500
F704        F  0.83922669  0.33176182  0.20583789    -0.12100
C705        C  0.78763221  0.15792716  0.10943661     0.25900
C706        C  0.75608167  0.13778779  0.11330506    -0.22200
C707        C  0.72603734  0.14683547  0.08956493     0.20800
C708        C  0.72723212  0.17508202  0.06422509     0.25800
C709        C  0.75852619  0.19495499  0.06105188    -0.22100
C710        C  0.78878941  0.18568449  0.08360376     0.20700
F711        F  0.81967524  0.20405461  0.08109625    -0.12100
F712        F  0.81747557  0.15180011  0.13134342    -0.14500
F713        F  0.69798553  0.18219599  0.04164765    -0.14500
F714        F  0.69534443  0.12814657  0.09003983    -0.12100
C715        C  0.75977059  0.33496495  0.07190498     0.25900
C716        C  0.75022119  0.32270339  0.03471091    -0.22200
C717        C  0.73566622  0.34658675  0.00831206     0.20800
C718        C  0.73141017  0.38183157  0.01831656     0.25800
C719        C  0.74215480  0.39462516  0.05490220    -0.22100
C720        C  0.75586061  0.37073100  0.08188983     0.20700
F721        F  0.76616328  0.38214918  0.11745860    -0.12100
F722        F  0.77423722  0.31267328  0.09793740    -0.14500
F723        F  0.71780289  0.40398199  0.99163154    -0.14500
F724        F  0.72024676  0.33742689  0.46898976    -0.12100
C725        C  0.65287566  0.27464694  0.48839391     0.25900
C726        C  0.67346202  0.24895747  0.46986774    -0.22200
C727        C  0.65507745  0.22472429  0.44567030     0.20800
C728        C  0.61715461  0.22487411  0.44238452     0.25800
C729        C  0.59638843  0.24905616  0.46348770    -0.22100
C730        C  0.61535197  0.27510539  0.48485327     0.20700
F731        F  0.59788831  0.30095695  0.50365232    -0.12100
F732        F  0.66898587  0.29980232  0.51038928    -0.14500
F733        F  0.60099504  0.20156043  0.41804239    -0.14500
F734        F  0.67360374  0.19985569  0.42634842    -0.12100
C735        C  0.80330177  0.25419489  0.39484865     0.25900
C736        C  0.80870563  0.24321723  0.43309390    -0.22200
C737        C  0.84463162  0.23488692  0.44466992     0.20800
C738        C  0.87277761  0.23454435  0.41847786     0.25800
C739        C  0.86667114  0.24401887  0.38026822    -0.22100
C740        C  0.83161116  0.25432767  0.36903062     0.20700
F741        F  0.82448780  0.26419515  0.33246452    -0.12100
F742        F  0.77100750  0.26635089  0.38226715    -0.14500
F743        F  0.90626122  0.22514306  0.43058843    -0.14500
F744        F  0.85819913  0.23466266  0.99075546    -0.12100
C745        C  0.37405833  0.77029009  0.32958630     0.25900
C746        C  0.39566588  0.74278570  0.31551470    -0.22200
C747        C  0.37900008  0.71868798  0.28939755     0.20800
C748        C  0.34321544  0.72308737  0.27655113     0.25800
C749        C  0.32303799  0.75232758  0.28783659    -0.22100
C750        C  0.33860127  0.77535172  0.31538760     0.20700
F751        F  0.31971047  0.80346715  0.32781637    -0.12100
F752        F  0.38752070  0.79310660  0.35625640    -0.14500
F753        F  0.32939168  0.69997296  0.25043360    -0.14500
F754        F  0.39789002  0.69215384  0.27347109    -0.12100
C755        C  0.19276799  0.74318662  0.32344864     0.25900
C756        C  0.18976931  0.74980914  0.28407944    -0.22200
C757        C  0.15510724  0.75121553  0.26671292     0.20800
C758        C  0.12419815  0.74769375  0.28854672     0.25800
C759        C  0.12714944  0.74278264  0.32817956    -0.22100
C760        C  0.16184553  0.73997436  0.34533841     0.20700
F761        F  0.16568984  0.73530895  0.38368476    -0.12100
F762        F  0.22561177  0.74169031  0.34106695    -0.14500
F763        F  0.09131978  0.74976975  0.27119502    -0.14500
F764        F  0.15124549  0.75640487  0.22845955    -0.12100
C765        C  0.23221125  0.66995416  0.19670444     0.25900
C766        C  0.26096494  0.69350109  0.19597787    -0.22200
C767        C  0.29062883  0.68488083  0.17380059     0.20800
C768        C  0.29124028  0.65407579  0.15169907     0.25800
C769        C  0.26153450  0.63097519  0.15043286    -0.22100
C770        C  0.23245600  0.63910318  0.17419140     0.20700
F771        F  0.20339729  0.61793617  0.17415768    -0.12100
F772        F  0.20276980  0.67798753  0.21713397    -0.14500
F773        F  0.32031994  0.64824805  0.12995647    -0.14500
F774        F  0.31885239  0.70706067  0.17255475    -0.12100
C775        C  0.23461288  0.82500399  0.15446032     0.25900
C776        C  0.25188926  0.82614846  0.19111860    -0.22200
C777        C  0.26202246  0.85953192  0.20578311     0.20800
C778        C  0.25949938  0.88937292  0.18271177     0.25800
C779        C  0.24628959  0.88686938  0.14470608    -0.22100
C780        C  0.23307149  0.85442641  0.13128873     0.20700
F781        F  0.21891056  0.85091240  0.09519966    -0.12100
F782        F  0.21781239  0.79579281  0.14099717    -0.14500
F783        F  0.26999935  0.92077065  0.19749150    -0.14500
F784        F  0.27343885  0.86371199  0.24279731    -0.12100
C785        C  0.36003782  0.75487635  0.02363110     0.25900
C786        C  0.33176760  0.75541929  0.05000598    -0.22200
C787        C  0.34190143  0.75731339  0.08957692     0.20800
C788        C  0.37851989  0.75743055  0.10170795     0.25800
C789        C  0.40599950  0.75667191  0.07494104    -0.22100
C790        C  0.39614169  0.75560453  0.03582986     0.20700
F791        F  0.42189046  0.75453652  0.00909384    -0.12100
F792        F  0.34978151  0.75720883  0.48254088    -0.14500
F793        F  0.38711423  0.75823495  0.13970846    -0.14500
F794        F  0.31706646  0.75964975  0.11695685    -0.12100
C795        C  0.12952640  0.77542636  0.06783691     0.25900
C796        C  0.12300215  0.75055049  0.09618118    -0.22200
C797        C  0.15130402  0.72694877  0.10551768     0.20800
C798        C  0.18453025  0.72851251  0.08737864     0.25800
C799        C  0.19102450  0.75382591  0.05964498    -0.22100
C800        C  0.16293719  0.77701941  0.04986630     0.20700
F801        F  0.16093353  0.79447707  0.51448452    -0.12100
F802        F  0.10356947  0.79868613  0.05785203    -0.14500
F803        F  0.21030509  0.70474303  0.09665641    -0.14500
F804        F  0.14739701  0.70261827  0.13289398    -0.12100
C805        C  0.25990528  0.66842354  0.44171664     0.25900
C806        C  0.23723488  0.68825629  0.46539610    -0.22200
C807        C  0.20475789  0.67288124  0.47592665     0.20800
C808        C  0.19757063  0.63740885  0.46746889     0.25800
C809        C  0.22289956  0.61609647  0.44834686    -0.22100
C810        C  0.25244476  0.63317463  0.43269775     0.20700
F811        F  0.27506720  0.61528325  0.40980427    -0.12100
F812        F  0.29034936  0.68280307  0.42863875    -0.14500
F813        F  0.16694001  0.62358893  0.48067152    -0.14500
F814        F  0.18121005  0.69113936  0.49741333    -0.12100
C815        C  0.23298230  0.81423820  0.42164041     0.25900
C816        C  0.24238748  0.81830242  0.46071098    -0.22200
C817        C  0.24927177  0.85249106  0.47492985     0.20800
C818        C  0.24876037  0.88135670  0.45046613     0.25800
C819        C  0.24038656  0.87717855  0.41123897    -0.22100
C820        C  0.23195490  0.84327158  0.39718739     0.20700
F821        F  0.22508792  0.83791918  0.35917397    -0.12100
F822        F  0.22749388  0.78183309  0.40656655    -0.14500
F823        F  0.25755864  0.91334298  0.46491770    -0.14500
F824        F  0.25916830  0.85932842  0.01281490    -0.12100
C825        C  0.28960061  0.75422556  0.53018254     0.88800
C826        C  0.28605015  0.78691014  0.00792214    -0.51400
C827        C  0.25398070  0.78779507  0.98835082     0.11700
C828        C  0.23002968  0.75559027  0.99611695     0.22700
C829        C  0.25645146  0.75436955  0.55639831    -0.52200
C830        C  0.22362771  0.75447154  0.53694721     0.11800
C831        C  0.28562935  0.72322397  0.00656369    -0.51700
C832        C  0.25311483  0.72268115  0.98735831     0.12400
H833        H  0.30598954  0.80727948  0.00530414     0.16900
H834        H  0.20384392  0.75585181  0.98021721     0.02600
H835        H  0.25798018  0.75460260  0.58731595     0.17200
H836        H  0.30428576  0.70142880  0.00531041     0.17000
C837        C  0.25389774  0.78847225  0.71818495     0.88800
C838        C  0.28592394  0.78671745  0.74702637    -0.51400
C839        C  0.28717372  0.75738668  0.76910330     0.11700
C840        C  0.25483994  0.73233513  0.76046322     0.22700
C841        C  0.25727637  0.75374041  0.69542150    -0.52200
C842        C  0.25704945  0.72438624  0.71704075     0.11800
C843        C  0.22074854  0.78430383  0.74232686    -0.51700
C844        C  0.22016787  0.75505941  0.76413731     0.12400
H845        H  0.30786526  0.80524536  0.74729835     0.16900
H846        H  0.25522076  0.70846019  0.77804810     0.02600
H847        H  0.26069040  0.75214087  0.66471166     0.17200
H848        H  0.19910094  0.80333707  0.74185108     0.17000
C849        C  0.78269123  0.24703246  0.97151173     0.88800
C850        C  0.78094583  0.21804502  0.49430793    -0.51400
C851        C  0.75671240  0.22174742  0.52267818     0.11700
C852        C  0.73134271  0.25361082  0.51711077     0.22700
C853        C  0.74275622  0.24349064  0.95715475    -0.52200
C854        C  0.71772007  0.24776167  0.98511829     0.11800
C855        C  0.78048338  0.28103706  0.48454362    -0.51700
C856        C  0.75596939  0.28570631  0.51245721     0.12400
H857        H  0.79904511  0.19583528  0.49311500     0.16900
H858        H  0.71186667  0.25678562  0.54039905     0.02600
H859        H  0.73446129  0.23764617  0.92785296     0.17200
H860        H  0.79842504  0.30175471  0.47639624     0.17000
C861        C  0.79729624  0.26147616  0.72375477     0.88800
C862        C  0.79621311  0.22961017  0.74977659    -0.51400
C863        C  0.76526152  0.22544885  0.76919196     0.11700
C864        C  0.73781790  0.25570841  0.76189163     0.22700
C865        C  0.76286309  0.25833081  0.69823219    -0.52200
C866        C  0.73139550  0.25484513  0.71778991     0.11800
C867        C  0.79005020  0.29211130  0.75144137    -0.51700
C868        C  0.75885119  0.29040322  0.77052492     0.12400
H869        H  0.81793598  0.21075084  0.75148718     0.16900
H870        H  0.71322932  0.25301919  0.77866802     0.02600
H871        H  0.76370856  0.25892270  0.66720393     0.17200
H872        H  0.80746551  0.31443157  0.75563474     0.17000
N873        N  0.08833506  0.75075559  0.61724398    -0.01200
C874        C  0.07794218  0.72354648  0.63941060     0.01400
C875        C  0.07918840  0.73362671  0.67774882    -0.21500
C876        C  0.08363320  0.76887325  0.67873586    -0.21700
C877        C  0.08641276  0.77905652  0.64127716     0.01300
H878        H  0.07326019  0.71814419  0.70235303     0.15100
H879        H  0.07950261  0.78566347  0.70345354     0.15100
N880        N  0.09432021  0.73743751  0.85615064    -0.01200
C881        C  0.08814444  0.70907233  0.87793193     0.01400
C882        C  0.07871225  0.71899493  0.91449648    -0.21500
C883        C  0.07687965  0.75452018  0.91495651    -0.21700
C884        C  0.08524345  0.76519980  0.87871088     0.01300
H885        H  0.06897527  0.70221528  0.93656090     0.15100
H886        H  0.06542968  0.77045496  0.93742354     0.15100
N887        N  0.74020351  0.42899586  0.56457332    -0.01200
C888        C  0.70835441  0.44642678  0.56379732     0.01400
C889        C  0.71103932  0.47808157  0.54578319    -0.21500
C890        C  0.74595166  0.48163027  0.53660710    -0.14500
C891        C  0.76328041  0.45191327  0.54906118     0.01300
H892        H  0.69094488  0.49853656  0.54467650     0.15100
H893        H  0.75829345  0.50522944  0.52666835     0.15100
N894        N  0.73444253  0.43268743  0.81954000    -0.01200
C895        C  0.70243110  0.45006187  0.81980760     0.01400
C896        C  0.70276078  0.47858329  0.79609611    -0.21500
C897        C  0.73670689  0.48123504  0.78339971    -0.21700
C898        C  0.75597048  0.45409030  0.79945863     0.01300
H899        H  0.68207275  0.49831378  0.79310608     0.15100
H900        H  0.74742235  0.50353866  0.76896219     0.15100
N901        N  0.44106097  0.75258688  0.58339799    -0.01200
C902        C  0.46511984  0.77630298  0.57041754     0.01400
C903        C  0.49231056  0.75954523  0.55107116    -0.21500
C904        C  0.48709855  0.72473621  0.55505272    -0.21700
C905        C  0.45728187  0.72117472  0.57719828     0.01300
H906        H  0.51683984  0.77094293  0.54126008     0.15100
H907        H  0.50678250  0.70470444  0.54900618     0.15100
N908        N  0.43332079  0.74058742  0.82564902    -0.01200
C909        C  0.45517355  0.71274385  0.81772250     0.01400
C910        C  0.48499676  0.72271555  0.79825321    -0.21500
C911        C  0.48336629  0.75780723  0.79565016    -0.21700
C912        C  0.45308452  0.76857572  0.81461189     0.01300
H913        H  0.50782576  0.70664671  0.79097135     0.15100
H914        H  0.50540281  0.77399652  0.78709830     0.15100
N915        N  0.74922418  0.11235921  0.63633986    -0.01200
C916        C  0.77725750  0.10301888  0.66024750     0.01400
C917        C  0.76725521  0.10577496  0.69809583    -0.21500
C918        C  0.73176016  0.11395366  0.69763377    -0.21700
C919        C  0.72053471  0.11443201  0.65969223     0.01300
H920        H  0.78192186  0.09692744  0.72327052     0.15100
H921        H  0.71467149  0.11139816  0.72196864     0.15100
N922        N  0.74923236  0.09228278  0.84656531    -0.01200
C923        C  0.72322969  0.09330258  0.87318556     0.01400
C924        C  0.73869546  0.09252817  0.90970291    -0.21500
C925        C  0.77341794  0.08244825  0.90529533    -0.21700
C926        C  0.77777498  0.07823819  0.86630051     0.01300
H927        H  0.72462253  0.08997406  0.93622956     0.15100
H928        H  0.79053733  0.07182050  0.92780387     0.15100
N929        N  0.94665229  0.26174538  0.68469287    -0.01200
C930        C  0.96756897  0.28964056  0.69617175     0.01400
C931        C  0.99253924  0.27994577  0.72401240    -0.21500
C932        C  0.98981994  0.24489447  0.72761354    -0.21700
C933        C  0.96352131  0.23386844  0.70162597     0.01300
H934        H  0.01451376  0.29544583  0.73576901     0.15100
H935        H  0.00945044  0.22873811  0.74240031     0.15100
N936        N  0.89770926  0.23971212  0.85905979    -0.01200
C937        C  0.90297029  0.20810196  0.84178085     0.01400
C938        C  0.90316239  0.21113111  0.80239427    -0.21500
C939        C  0.90177198  0.24584316  0.79497037    -0.21700
C940        C  0.90031285  0.26288748  0.83008720     0.01300
H941        H  0.91002676  0.19087701  0.78190028     0.15100
H942        H  0.90737180  0.25730509  0.76766297     0.15100
Zn943      Zn  0.02436803  0.98151119  0.58791438     1.49700
Zn944      Zn  0.02732003  0.02718064  0.65842658     1.49400
Zn945      Zn  0.96760699  0.03724260  0.59092608     1.49100
Zn946      Zn  0.96436240  0.97002163  0.64738051     1.49500
O947        O  0.99388564  0.00441627  0.62248845    -1.81800
O948        O  0.07131940  0.00438621  0.58863384    -0.72400
O949        O  0.01943847  0.07900601  0.65602680    -0.72300
O950        O  0.96897829  0.02596878  0.53349162    -0.71800
O951        O  0.07762231  0.00713590  0.65122129    -0.72500
O952        O  0.00514450  0.97989910  0.53517767    -0.72100
O953        O  0.97974771  0.08687214  0.60775430    -0.72600
O954        O  0.91073512  0.98661749  0.64083944    -0.72000
O955        O  0.01540847  0.01568243  0.71186305    -0.72800
O956        O  0.91731737  0.03412073  0.60533891    -0.72200
O957        O  0.97382995  0.97451881  0.70470712    -0.72700
O958        O  0.98314070  0.91911417  0.63402807    -0.72600
O959        O  0.03311397  0.93370869  0.60473149    -0.72300
C960        C  0.08962528  0.99806028  0.61878615     0.79400
C961        C  0.99804486  0.09845470  0.63666986     0.79900
C962        C  0.98430986  0.00026934  0.51691857     0.78900
C963        C  0.89827795  0.01466422  0.62553849     0.79300
C964        C  0.99409844  0.99387918  0.72587822     0.80400
C965        C  0.01419842  0.91129586  0.62105406     0.79500
Zn966      Zn  0.96318594  0.95346248  0.83484461     1.49700
Zn967      Zn  0.01830668  0.01888153  0.84577870     1.49400
Zn968      Zn  0.95243582  0.00855318  0.90217044     1.49100
Zn969      Zn  0.01547778  0.95924930  0.90792709     1.49500
O970        O  0.98747145  0.98526714  0.87135261    -1.81800
O971        O  0.97582629  0.96603091  0.78164749    -0.72400
O972        O  0.00321812  0.07017366  0.86000761    -0.72300
O973        O  0.90273551  0.99623188  0.88724108    -0.71800
O974        O  0.00925458  0.01376769  0.78867204    -0.72500
O975        O  0.90859417  0.96482843  0.83345528    -0.72100
O976        O  0.95383733  0.05747235  0.89051283    -0.72600
O977        O  0.00930483  0.97499566  0.96189253    -0.72000
O978        O  0.07160285  0.00333495  0.85286033    -0.72800
O979        O  0.96136222  0.00914189  0.95880900    -0.72200
O980        O  0.06664219  0.96265477  0.89710446    -0.72700
O981        O  0.00849450  0.90842224  0.90115447    -0.72600
O982        O  0.98510866  0.90373255  0.84190079    -0.72300
C983        C  0.99300587  0.99109562  0.76757987     0.79400
C984        C  0.97391853  0.07966487  0.87570005     0.79900
C985        C  0.88981045  0.98366498  0.85599814     0.78900
C986        C  0.98688812  0.99519676  0.97776583     0.79300
C987        C  0.08514308  0.97905397  0.87356349     0.80400
C988        C  0.00410062  0.89146497  0.86978559     0.79500
N989        N  0.24463554  0.91080542  0.62042903    -0.01200
C990        C  0.27478513  0.91849116  0.60152397     0.01400
C991        C  0.26655488  0.92666613  0.56389926    -0.21500
C992        C  0.23004641  0.92649872  0.56007590    -0.21700
C993        C  0.21715632  0.91802486  0.59550172     0.01300
H994        H  0.28467414  0.93738722  0.54347694     0.15100
H995        H  0.21482297  0.93692049  0.53599658     0.15100
N996        N  0.24627930  0.90230822  0.88272000    -0.01200
C997        C  0.22050183  0.90872394  0.85526113     0.01400
C998        C  0.23599582  0.91474997  0.82044075    -0.21500
C999        C  0.27222877  0.91430083  0.82689864    -0.21700
C1000       C  0.27793506  0.90803888  0.86541375     0.01300
H1001       H  0.22267149  0.92402478  0.79460666     0.15100
H1002       H  0.29196377  0.92313232  0.80708834     0.15100
Zn1003     Zn  0.54217673  0.97695568  0.63461159     1.49700
Zn1004     Zn  0.51561335  0.03660766  0.69394138     1.49400
Zn1005     Zn  0.47069048  0.01807124  0.62025415     1.49100
Zn1006     Zn  0.47764339  0.96549844  0.68936003     1.49500
O1007       O  0.50151332  0.99879911  0.65967113    -1.81800
O1008       O  0.58898812  0.00216204  0.64917650    -0.72400
O1009       O  0.49340099  0.08187117  0.67852156    -0.72300
O1010       O  0.48107514  0.99401954  0.56948530    -0.71800
O1011       O  0.56706805  0.04574004  0.68443545    -0.72500
O1012       O  0.53920324  0.98374137  0.57832699    -0.72100
O1013       O  0.48803892  0.06928269  0.61666611    -0.72600
O1014       O  0.42598951  0.96810831  0.67809577    -0.72000
O1015       O  0.50656103  0.02691097  0.74981347    -0.72800
O1016       O  0.41815670  0.00580929  0.63054845    -0.72200
O1017       O  0.48715052  0.97204453  0.74586573    -0.72700
O1018       O  0.48799218  0.91791305  0.66935936    -0.72600
O1019       O  0.53645586  0.92362871  0.63432299    -0.72300
C1020       C  0.59249871  0.03203095  0.66578303     0.79400
C1021       C  0.49734716  0.09042289  0.64390419     0.79900
C1022       C  0.51145272  0.98516435  0.55668446     0.78900
C1023       C  0.40614140  0.98258225  0.65286437     0.79300
C1024       C  0.49668654  0.99889111  0.76551514     0.80400
C1025       C  0.51025944  0.90542259  0.64589862     0.79500
Zn1026     Zn  0.48702394  0.94968557  0.94184971     1.49700
Zn1027     Zn  0.47605401  0.01632377  0.88717570     1.49400
Zn1028     Zn  0.54566930  0.00310335  0.94450062     1.49100
Zn1029     Zn  0.53848666  0.96015227  0.87126257     1.49500
O1030       O  0.51064350  0.98260122  0.91011607    -1.81800
O1031       O  0.43592577  0.95074234  0.92925877    -0.72400
O1032       O  0.48727708  0.06620311  0.90915899    -0.72300
O1033       O  0.54142227  0.99322365  0.99979199    -0.71800
O1034       O  0.42400175  0.99696589  0.89366330    -0.72500
O1035       O  0.49101001  0.96274674  0.99849815    -0.72100
O1036       O  0.53628631  0.05224809  0.94273543    -0.72600
O1037       O  0.58849101  0.98229702  0.86804885    -0.72000
O1038       O  0.48330693  0.01781464  0.82904424    -0.72800
O1039       O  0.59575009  0.00146869  0.92787962    -0.72200
O1040       O  0.51809961  0.97131310  0.82027531    -0.72700
O1041       O  0.52966351  0.90860996  0.87275296    -0.72600
O1042       O  0.49715750  0.90030353  0.92469472    -0.72300
C1043       C  0.41396254  0.96887289  0.90978466     0.79400
C1044       C  0.51476066  0.07497604  0.92997280     0.79900
C1045       C  0.51496133  0.98046424  0.01665274     0.78900
C1046       C  0.60585751  0.00005982  0.89350907     0.79300
C1047       C  0.49914478  0.99606071  0.80715254     0.80400
C1048       C  0.50895330  0.88989703  0.89247264     0.79500
N1049       N  0.59329691  0.23962739  0.63637148    -0.01200
C1050       C  0.58546852  0.26778437  0.61415329     0.01400
C1051       C  0.57713800  0.25728970  0.57712946    -0.21500
C1052       C  0.57665266  0.22179259  0.57661076    -0.21700
C1053       C  0.58429471  0.21144622  0.61360506     0.01300
H1054       H  0.56561740  0.27360672  0.55501678     0.15100
H1055       H  0.56535366  0.20579297  0.55392653     0.15100
N1056       N  0.56144174  0.24413186  0.96634784    -0.01200
C1057       C  0.53866999  0.26998810  0.97794021     0.01400
C1058       C  0.51167281  0.25720154  0.00000660    -0.21500
C1059       C  0.51592955  0.22218586  0.00053456    -0.21700
C1060       C  0.54533975  0.21460931  0.97877853     0.01300
H1061       H  0.48838106  0.27126729  0.00992796     0.15100
H1062       H  0.49660690  0.20377570  0.01083940     0.15100
Zn1063     Zn  0.97250850  0.52596292  0.61691051     1.49700
Zn1064     Zn  0.04441278  0.48281533  0.61625876     1.49400
Zn1065     Zn  0.98370185  0.46411116  0.55572822     1.49100
Zn1066     Zn  0.02282239  0.53371866  0.54766063     1.49500
O1067       O  0.00584748  0.50168235  0.58440432    -1.81800
O1068       O  0.98116668  0.50821432  0.67044923    -0.72400
O1069       O  0.03607466  0.43032396  0.62318727    -0.72300
O1070       O  0.93205759  0.46980651  0.55962203    -0.71800
O1071       O  0.04002697  0.49909169  0.67042932    -0.72500
O1072       O  0.92034810  0.51311999  0.60063442    -0.72100
O1073       O  0.99187100  0.41812484  0.58104222    -0.72600
O1074       O  0.00478887  0.52220867  0.49425971    -0.72000
O1075       O  0.09272495  0.50241194  0.60125582    -0.72800
O1076       O  0.99162620  0.46587346  0.49886794    -0.72200
O1077       O  0.07621106  0.53697634  0.55320933    -0.72700
O1078       O  0.01039324  0.58269694  0.56002973    -0.72600
O1079       O  0.98666875  0.57830149  0.61717137    -0.72300
C1080       C  0.01077622  0.50153008  0.68792281     0.79400
C1081       C  0.01170786  0.40975381  0.60966960     0.79900
C1082       C  0.90995691  0.48863133  0.57755774     0.78900
C1083       C  0.99523976  0.49322747  0.47901829     0.79300
C1084       C  0.09980213  0.52623648  0.57737488     0.80400
C1085       C  0.00224853  0.59636188  0.59193096     0.79500
Zn1086     Zn  0.97313809  0.51982245  0.86169441     1.49700
Zn1087     Zn  0.97310451  0.46394454  0.79431949     1.49400
Zn1088     Zn  0.04151123  0.50672207  0.80789778     1.49100
Zn1089     Zn  0.02037741  0.45001615  0.86814761     1.49500
O1090       O  0.00179521  0.48542997  0.83360064    -1.81800
O1091       O  0.91817519  0.51158713  0.85081404    -0.72400
O1092       O  0.98414451  0.47944367  0.74216237    -0.72300
O1093       O  0.04241229  0.55621750  0.82278309    -0.71800
O1094       O  0.92324642  0.47552011  0.80101984    -0.72500
O1095       O  0.99211887  0.56938064  0.85297263    -0.72100
O1096       O  0.03728929  0.50484238  0.75019496    -0.72600
O1097       O  0.07295924  0.46149591  0.87900023    -0.72000
O1098       O  0.97097273  0.41275668  0.79984531    -0.72800
O1099       O  0.08936193  0.49202639  0.82889908    -0.72200
O1100       O  0.00131622  0.40130809  0.85380636    -0.72700
O1101       O  0.00325853  0.45788606  0.92109835    -0.72600
O1102       O  0.98450620  0.51287525  0.91776517    -0.72300
C1103       C  0.90402962  0.49233752  0.82415132     0.79400
C1104       C  0.01085186  0.49510645  0.72887985     0.79900
C1105       C  0.02257904  0.57787089  0.84000658     0.78900
C1106       C  0.09471003  0.48214519  0.86316238     0.79300
C1107       C  0.97942636  0.39205073  0.82670853     0.80400
C1108       C  0.99500778  0.48665316  0.93701400     0.79500
N1109       N  0.25737248  0.59958344  0.62254353    -0.01200
C1110       C  0.23162858  0.60532164  0.59502688     0.01400
C1111       C  0.24723983  0.61022262  0.56011836    -0.21500
C1112       C  0.28213622  0.59998671  0.56463336    -0.21700
C1113       C  0.28625102  0.58916866  0.60206885     0.01300
H1114       H  0.23345873  0.61306260  0.53276761     0.15100
H1115       H  0.30038151  0.59582594  0.54166978     0.15100
N1116       N  0.22382672  0.58003650  0.94754984    -0.01200
C1117       C  0.19431441  0.56253187  0.95934239     0.01400
C1118       C  0.20309617  0.54336001  0.99163800    -0.21500
C1119       C  0.23943722  0.54396808  0.99566223    -0.21700
C1120       C  0.25171489  0.56402286  0.96636666     0.01300
H1121       H  0.18658072  0.52416003  0.00505236     0.15100
H1122       H  0.25496614  0.52538799  0.01221765     0.15100
Zn1123     Zn  0.46403374  0.52292662  0.67918560     1.49700
Zn1124     Zn  0.52220732  0.52749562  0.61745107     1.49400
Zn1125     Zn  0.52818642  0.47131532  0.68237234     1.49100
Zn1126     Zn  0.46790291  0.46119816  0.61609235     1.49500
O1127       O  0.49504864  0.49543491  0.64796356    -1.81800
O1128       O  0.46667455  0.57414435  0.66963381    -0.72400
O1129       O  0.57264339  0.51030356  0.61964313    -0.72300
O1130       O  0.51068441  0.47132707  0.73631872    -0.71800
O1131       O  0.51145501  0.57864086  0.62917989    -0.72500
O1132       O  0.46584469  0.50970183  0.73380414    -0.72100
O1133       O  0.57931424  0.48641889  0.67702449    -0.72600
O1134       O  0.48905207  0.41052490  0.62316422    -0.72000
O1135       O  0.50967042  0.52186839  0.56171914    -0.72800
O1136       O  0.53265495  0.42222109  0.66591769    -0.72200
O1137       O  0.47642727  0.47379441  0.56140946    -0.72700
O1138       O  0.41266148  0.46952337  0.62107595    -0.72600
O1139       O  0.41560933  0.51410662  0.66225759    -0.72300
C1140       C  0.48564284  0.59210466  0.64767934     0.79400
C1141       C  0.59088128  0.49269988  0.64390158     0.79900
C1142       C  0.48496399  0.48764155  0.75192898     0.78900
C1143       C  0.51699064  0.40113280  0.64281076     0.79300
C1144       C  0.49201006  0.49819708  0.54392778     0.80400
C1145       C  0.39764939  0.49437566  0.63982312     0.79500
Zn1146     Zn  0.49975740  0.45005769  0.86649090     1.49700
Zn1147     Zn  0.51181993  0.51574055  0.92432245     1.49400
Zn1148     Zn  0.44451665  0.50913436  0.86296022     1.49100
Zn1149     Zn  0.44560899  0.46074612  0.93258357     1.49500
O1150       O  0.47602430  0.48461268  0.89777713    -1.81800
O1151       O  0.55086894  0.45055213  0.87863762    -0.72400
O1152       O  0.50324390  0.56746825  0.90709395    -0.72300
O1153       O  0.45261701  0.49899182  0.80769461    -0.71800
O1154       O  0.56371971  0.49824069  0.91277699    -0.72500
O1155       O  0.49782689  0.46131934  0.81112957    -0.72100
O1156       O  0.45754512  0.55744274  0.86632775    -0.72600
O1157       O  0.39373580  0.47763443  0.92938326    -0.72000
O1158       O  0.50553308  0.51120975  0.98226421    -0.72800
O1159       O  0.39362994  0.51140595  0.87814778    -0.72200
O1160       O  0.46149331  0.47239829  0.98583772    -0.72700
O1161       O  0.45627588  0.40944217  0.93028524    -0.72600
O1162       O  0.48756550  0.40101061  0.87760360    -0.72300
C1163       C  0.57364482  0.47038873  0.89514282     0.79400
C1164       C  0.47954833  0.57811381  0.88263592     0.79900
C1165       C  0.47778543  0.48194265  0.79216843     0.78900
C1166       C  0.37839713  0.49962650  0.90726380     0.79300
C1167       C  0.48495888  0.49208356  0.00173715     0.80400
C1168       C  0.47591639  0.39034642  0.90914161     0.79500
C1169       C  0.28056935  0.51841044  0.92536174     0.25900
C1170       C  0.28323682  0.55031550  0.94608550    -0.22200
C1171       C  0.31698553  0.56560113  0.95217699     0.20800
C1172       C  0.34760073  0.54914190  0.93829926     0.25800
C1173       C  0.34506762  0.51667060  0.91906149    -0.22100
C1174       C  0.31137818  0.50161879  0.91206764     0.20700
F1175       F  0.30842603  0.47054419  0.89308389    -0.12100
F1176       F  0.24827900  0.50264913  0.91976077    -0.14500
F1177       F  0.38008148  0.56439457  0.94466984    -0.14500
F1178       F  0.32041177  0.59604802  0.97225536    -0.12100
C1179       C  0.31895138  0.55252151  0.65157083     0.25900
C1180       C  0.30965225  0.55869098  0.61297865    -0.22200
C1181       C  0.32226515  0.53453090  0.58504261     0.20800
C1182       C  0.34710915  0.50846779  0.59489176     0.25800
C1183       C  0.36011831  0.50584607  0.63268936    -0.22100
C1184       C  0.34353885  0.52621628  0.66130558     0.20700
F1185       F  0.35429994  0.52328284  0.69860464    -0.12100
F1186       F  0.30638085  0.57333460  0.67996678    -0.14500
F1187       F  0.36125827  0.48839594  0.56665629    -0.14500
F1188       F  0.31170806  0.53625958  0.54772129    -0.12100
C1189       C  0.11381320  0.50985392  0.92553274     0.25900
C1190       C  0.12211229  0.50097675  0.88743633    -0.22200
C1191       C  0.15216357  0.51686619  0.87144233     0.20800
C1192       C  0.17437502  0.53942474  0.89365868     0.25800
C1193       C  0.16664069  0.54712461  0.93224740    -0.22100
C1194       C  0.13518238  0.53313486  0.94712492     0.20700
F1195       F  0.12536229  0.54153692  0.98325185    -0.12100
F1196       F  0.08388203  0.49727164  0.94168106    -0.14500
F1197       F  0.20404586  0.55267394  0.87766007    -0.14500
F1198       F  0.16028483  0.51028803  0.83435726    -0.12100
C1199       C  0.13698097  0.57956960  0.56618283     0.25900
C1200       C  0.13453028  0.54538619  0.58068707    -0.22200
C1201       C  0.16360815  0.53244937  0.60284215     0.20800
C1202       C  0.19445598  0.55268948  0.60949985     0.25800
C1203       C  0.19684940  0.58651956  0.59446303    -0.22100
C1204       C  0.16756553  0.59984494  0.57333669     0.20700
F1205       F  0.16866686  0.63272992  0.55952540    -0.12100
F1206       F  0.10938595  0.59407706  0.54582005    -0.14500
F1207       F  0.22241673  0.53858999  0.62965690    -0.14500
F1208       F  0.16242852  0.50005890  0.61790908    -0.12100
C1209       C  0.52339522  0.30291411  0.91855588     0.25900
C1210       C  0.53169381  0.30306437  0.95814213    -0.22200
C1211       C  0.52163720  0.33188376  0.98066861     0.20800
C1212       C  0.50170652  0.35897603  0.96475028     0.25800
C1213       C  0.49187171  0.35841361  0.92550084    -0.22100
C1214       C  0.50393077  0.33065377  0.90222894     0.20700
F1215       F  0.49590927  0.32986140  0.86405589    -0.12100
F1216       F  0.53174501  0.27483680  0.89630986    -0.14500
F1217       F  0.49281196  0.38630597  0.98789201    -0.14500
F1218       F  0.52906837  0.33258767  0.01898214    -0.12100
C1219       C  0.57182601  0.36276868  0.64097947     0.25900
C1220       C  0.53395092  0.36601908  0.63819562    -0.22200
C1221       C  0.51355177  0.33573899  0.63157694     0.20800
C1222       C  0.53055826  0.30321190  0.62716385     0.25800
C1223       C  0.56835093  0.30033067  0.62850991    -0.22100
C1224       C  0.58876163  0.33037282  0.63571213     0.20700
F1225       F  0.62513767  0.32865656  0.63577395    -0.12100
F1226       F  0.59275904  0.39132124  0.64706094    -0.14500
F1227       F  0.51013206  0.27451467  0.61974956    -0.14500
F1228       F  0.47721555  0.33756397  0.62947205    -0.12100
C1229       C  0.55160199  0.11871537  0.96786984     0.25900
C1230       C  0.52411775  0.11175407  0.93981391    -0.22200
C1231       C  0.50828606  0.13998757  0.92044900     0.20800
C1232       C  0.51870110  0.17419908  0.92996919     0.25800
C1233       C  0.54507511  0.18066750  0.95886513    -0.22100
C1234       C  0.56210892  0.15273115  0.97671952     0.20700
F1235       F  0.58763044  0.15857101  0.00444944    -0.12100
F1236       F  0.56762510  0.09277411  0.98822796    -0.14500
F1237       F  0.50113652  0.20124938  0.91311483    -0.14500
F1238       F  0.48217351  0.13467444  0.89316623    -0.12100
C1239       C  0.54556297  0.12059143  0.60854552     0.25900
C1240       C  0.51865804  0.12230290  0.63607172    -0.22200
C1241       C  0.51715423  0.15220782  0.66007711     0.20800
C1242       C  0.54052478  0.18048429  0.65508816     0.25800
C1243       C  0.56676274  0.17899309  0.62684435    -0.22100
C1244       C  0.56962136  0.14822898  0.60456132     0.20700
F1245       F  0.59569718  0.14517278  0.57836801    -0.12100
F1246       F  0.54976617  0.09138765  0.58657546    -0.14500
F1247       F  0.53620230  0.20996888  0.67652822    -0.14500
F1248       F  0.49244281  0.15441335  0.68783477    -0.12100
C1249       C  0.31445933  0.96030905  0.88398489     0.25900
C1250       C  0.30971086  0.92382284  0.88510810    -0.22200
C1251       C  0.33820298  0.90287124  0.89773839     0.20800
C1252       C  0.37148428  0.91785510  0.90743499     0.25800
C1253       C  0.37710487  0.95434015  0.90409881    -0.22100
C1254       C  0.34789468  0.97539336  0.89302770     0.20700
F1255       F  0.35189326  0.01039920  0.88987245    -0.12100
F1256       F  0.28709430  0.98117137  0.87178705    -0.14500
F1257       F  0.39884826  0.89605669  0.91746615    -0.14500
F1258       F  0.33454424  0.86764219  0.89817165    -0.12100
C1259       C  0.33366565  0.91510470  0.63672430     0.25900
C1260       C  0.30595574  0.93517336  0.62081548    -0.22200
C1261       C  0.30937172  0.97178580  0.61996490     0.20800
C1262       C  0.34138596  0.98788200  0.63200767     0.25800
C1263       C  0.36996964  0.96769258  0.64628639    -0.22100
C1264       C  0.36532397  0.93119394  0.64977555     0.20700
F1265       F  0.39250355  0.91053892  0.66292928    -0.12100
F1266       F  0.33092138  0.87980504  0.63754891    -0.14500
F1267       F  0.34472559  0.02296005  0.62887660    -0.14500
F1268       F  0.28207160  0.99180395  0.60591888    -0.12100
C1269       C  0.12566893  0.94065577  0.83721491     0.25900
C1270       C  0.12138497  0.96495908  0.86731837    -0.22200
C1271       C  0.14839207  0.96769792  0.89603227     0.20800
C1272       C  0.18002433  0.94786444  0.89355964     0.25800
C1273       C  0.18459744  0.92391876  0.86297291    -0.22100
C1274       C  0.15670745  0.92015887  0.83524290     0.20700
F1275       F  0.15966253  0.89664820  0.80597154    -0.12100
F1276       F  0.09888136  0.93557483  0.81059039    -0.14500
F1277       F  0.20666180  0.95321083  0.92022203    -0.14500
F1278       F  0.14403866  0.98954859  0.92652693    -0.12100
C1279       C  0.17966233  0.95442036  0.63933136     0.25900
C1280       C  0.18197730  0.93163991  0.60736221    -0.22200
C1281       C  0.15257758  0.92876278  0.58166806     0.20800
C1282       C  0.12292017  0.95054160  0.58553364     0.25800
C1283       C  0.12155419  0.97527425  0.61584273    -0.22100
C1284       C  0.14939783  0.97576766  0.64379157     0.20700
F1285       F  0.14825142  0.99816613  0.67424381    -0.12100
F1286       F  0.20778714  0.95821172  0.66453130    -0.14500
F1287       F  0.09556327  0.94740507  0.55923484    -0.14500
F1288       F  0.15349566  0.90613850  0.55136555    -0.12100
C1289       C  0.90759119  0.32342846  0.80748320     0.25900
C1290       C  0.91641659  0.29800965  0.83458729    -0.22200
C1291       C  0.94600939  0.30369384  0.85979191     0.20800
C1292       C  0.96724830  0.33365164  0.85677031     0.25800
C1293       C  0.95951982  0.35839561  0.82820723    -0.22100
C1294       C  0.92884549  0.35299122  0.80402209     0.20700
F1295       F  0.91873813  0.37647288  0.77703716    -0.12100
F1296       F  0.87868991  0.31906680  0.78338706    -0.14500
F1297       F  0.99560817  0.33808666  0.88153923    -0.14500
F1298       F  0.95565393  0.27936514  0.88599232    -0.12100
C1299       C  0.90841088  0.15537131  0.88241391     0.25900
C1300       C  0.92455081  0.17989112  0.85950426    -0.22200
C1301       C  0.96020731  0.17425117  0.84813405     0.20800
C1302       C  0.97776629  0.14262006  0.85566634     0.25800
C1303       C  0.96015607  0.11627909  0.87525222    -0.22100
C1304       C  0.92606583  0.12407604  0.89071317     0.20700
F1305       F  0.90838783  0.10058887  0.91190510    -0.12100
F1306       F  0.87447154  0.16050475  0.89441326    -0.14500
F1307       F  0.01102951  0.13716351  0.84188220    -0.14500
F1308       F  0.97719765  0.19861549  0.82748457    -0.12100
C1309       C  0.97441204  0.32009758  0.63273684     0.25900
C1310       C  0.97494120  0.32129930  0.67308664    -0.22200
C1311       C  0.98784499  0.35177036  0.69186832     0.20800
C1312       C  0.00161706  0.37938807  0.67115937     0.25800
C1313       C  0.00235433  0.37777978  0.63088055    -0.22100
C1314       C  0.98776642  0.34812915  0.61186584     0.20700
F1315       F  0.98672269  0.34614298  0.57300682    -0.12100
F1316       F  0.96185447  0.29153358  0.61340074    -0.14500
F1317       F  0.01254523  0.40858167  0.69063397    -0.14500
F1318       F  0.98690330  0.35497212  0.73062482    -0.12100
C1319       C  0.97476380  0.16987701  0.70732744     0.25900
C1320       C  0.96813689  0.19866864  0.68369216    -0.22200
C1321       C  0.97165372  0.19432942  0.64375939     0.20800
C1322       C  0.98195164  0.16197616  0.62802323     0.25800
C1323       C  0.99020201  0.13380675  0.65203143    -0.22100
C1324       C  0.98609645  0.13808245  0.69182520     0.20700
F1325       F  0.99177102  0.11095243  0.71584956    -0.12100
F1326       F  0.97063634  0.17265052  0.74577351    -0.14500
F1327       F  0.98458444  0.15840309  0.58946838    -0.14500
F1328       F  0.96561952  0.22145803  0.61998689    -0.12100
C1329       C  0.63334780  0.05885526  0.89794688     0.25900
C1330       C  0.63454288  0.02451032  0.88288285    -0.22200
C1331       C  0.66171798  0.01561549  0.85744723     0.20800
C1332       C  0.68916130  0.03963497  0.85036246     0.25800
C1333       C  0.68942911  0.07298985  0.86837845    -0.22100
C1334       C  0.66023680  0.08277180  0.89059200     0.20700
F1335       F  0.65919492  0.11485228  0.90764070    -0.12100
F1336       F  0.60618078  0.06931500  0.92051445    -0.14500
F1337       F  0.71673786  0.02925666  0.82830040    -0.14500
F1338       F  0.66298803  0.98313675  0.84149095    -0.12100
C1339       C  0.85279051  0.02673703  0.82067463     0.25900
C1340       C  0.85407221  0.99721969  0.84439912    -0.22200
C1341       C  0.82505555  0.99098956  0.86791101     0.20800
C1342       C  0.79755520  0.01571055  0.87119058     0.25800
C1343       C  0.79925563  0.04791356  0.85208504    -0.22100
C1344       C  0.82558345  0.05198920  0.82455254     0.20700
F1345       F  0.82723408  0.08181554  0.80428667    -0.12100
F1346       F  0.88066161  0.03364457  0.79777844    -0.14500
F1347       F  0.77088445  0.00948668  0.89587215    -0.14500
F1348       F  0.82550958  0.96289535  0.89110246    -0.12100
C1349       C  0.65434654  0.11053276  0.66258646     0.25900
C1350       C  0.68668382  0.09536363  0.65152471    -0.22200
C1351       C  0.68766977  0.05932311  0.64290389     0.20800
C1352       C  0.65722999  0.03854826  0.64725920     0.25800
C1353       C  0.62534691  0.05333947  0.66090439    -0.22100
C1354       C  0.62411702  0.08988454  0.66748236     0.20700
F1355       F  0.59380918  0.10591278  0.67940499    -0.12100
F1356       F  0.65267056  0.14521995  0.67086410    -0.14500
F1357       F  0.65960739  0.00374635  0.63991103    -0.14500
F1358       F  0.71889840  0.04365078  0.63330540    -0.12100
C1359       C  0.86495016  0.05246336  0.66903412     0.25900
C1360       C  0.86375423  0.03030844  0.63665696    -0.22200
C1361       C  0.83485179  0.03366016  0.61018109     0.20800
C1362       C  0.80705994  0.05793850  0.61679619     0.25800
C1363       C  0.80840442  0.08028805  0.64939968    -0.22100
C1364       C  0.83831005  0.07753650  0.67487347     0.20700
F1365       F  0.84274306  0.10013443  0.70495326    -0.12100
F1366       F  0.89387464  0.05186978  0.69355409    -0.14500
F1367       F  0.77908961  0.05955523  0.59120668    -0.14500
F1368       F  0.83409515  0.01411468  0.57741895    -0.12100
C1369       C  0.45538176  0.67407008  0.87566083     0.25900
C1370       C  0.45514811  0.67788407  0.83551063    -0.22200
C1371       C  0.46527110  0.64932034  0.81251726     0.20800
C1372       C  0.47656801  0.61825646  0.82891717     0.25800
C1373       C  0.47706724  0.61418284  0.86885710    -0.22100
C1374       C  0.46599186  0.64218554  0.89225115     0.20700
F1375       F  0.46466341  0.63839844  0.93076856    -0.12100
F1376       F  0.44674252  0.70142566  0.89877372    -0.14500
F1377       F  0.48639791  0.59145227  0.80546311    -0.14500
F1378       F  0.46555712  0.65202754  0.77376948    -0.12100
C1379       C  0.46753141  0.83132591  0.81544212     0.25900
C1380       C  0.45681268  0.80215638  0.83597394    -0.22200
C1381       C  0.46159799  0.80265053  0.87618944     0.20800
C1382       C  0.47883652  0.83088530  0.89502090     0.25800
C1383       C  0.49285485  0.85838129  0.87379379    -0.22100
C1384       C  0.48588683  0.85867607  0.83384601     0.20700
F1385       F  0.49645257  0.88576092  0.81225790    -0.12100
F1386       F  0.46294855  0.83183809  0.77671174    -0.14500
F1387       F  0.48295966  0.83067635  0.93376367    -0.14500
F1388       F  0.45164915  0.77490172  0.89701424    -0.12100
C1389       C  0.43356852  0.66476018  0.60071710     0.25900
C1390       C  0.45765823  0.69253688  0.60516795    -0.22200
C1391       C  0.48795589  0.68880659  0.63000552     0.20800
C1392       C  0.49638984  0.65648085  0.64607421     0.25800
C1393       C  0.47389629  0.62789737  0.63886713    -0.22100
C1394       C  0.44147956  0.63266398  0.61777351     0.20700
F1395       F  0.41927340  0.60520683  0.61045216    -0.12100
F1396       F  0.40425004  0.66768586  0.57705951    -0.14500
F1397       F  0.52740380  0.65259302  0.66685024    -0.14500
F1398       F  0.51125670  0.71567240  0.63558813    -0.12100
C1399       C  0.46718233  0.81659027  0.62831472     0.25900
C1400       C  0.47281816  0.81096134  0.58898944    -0.22200
C1401       C  0.49231539  0.83618912  0.56923574     0.20800
C1402       C  0.50685028  0.86545648  0.58846146     0.25800
C1403       C  0.50161911  0.87088445  0.62789675    -0.22100
C1404       C  0.48110294  0.84630653  0.64740234     0.20700
F1405       F  0.47452474  0.85101441  0.68518611    -0.12100
F1406       F  0.44938979  0.79272778  0.64881491    -0.14500
F1407       F  0.52450798  0.88941119  0.56787393    -0.14500
F1408       F  0.49743788  0.83248674  0.53101753    -0.12100
C1409       C  0.80854985  0.46559475  0.84442683     0.25900
C1410       C  0.79490373  0.45910760  0.80690407    -0.22200
C1411       C  0.81646361  0.46660544  0.77584669     0.20800
C1412       C  0.85077806  0.48027601  0.78187019     0.25800
C1413       C  0.86491904  0.48631941  0.81927100    -0.22100
C1414       C  0.84341787  0.47890021  0.85057462     0.20700
F1415       F  0.85646325  0.48354008  0.88696806    -0.12100
F1416       F  0.78759703  0.46054563  0.87501384    -0.14500
F1417       F  0.87048758  0.48746318  0.75082333    -0.14500
F1418       F  0.80370730  0.46162622  0.73936126    -0.12100
C1419       C  0.65285366  0.42217666  0.85535819     0.25900
C1420       C  0.67686440  0.44974440  0.85163046    -0.22200
C1421       C  0.67102014  0.48099400  0.87265268     0.20800
C1422       C  0.63866726  0.48679719  0.89115357     0.25800
C1423       C  0.61199784  0.46109822  0.88963498    -0.22100
C1424       C  0.62089108  0.42758750  0.87476741     0.20700
F1425       F  0.59719056  0.40081635  0.87582539    -0.12100
F1426       F  0.65835451  0.39124689  0.83699550    -0.14500
F1427       F  0.63212650  0.51875246  0.90680046    -0.14500
F1428       F  0.69513612  0.50741647  0.87178827    -0.12100
C1429       C  0.82527862  0.45670972  0.52753020     0.25900
C1430       C  0.80192651  0.45376987  0.55795219    -0.22200
C1431       C  0.81392297  0.46323584  0.59527849     0.20800
C1432       C  0.84864131  0.47637123  0.60178304     0.25800
C1433       C  0.87181876  0.47983464  0.57105459    -0.22100
C1434       C  0.85994759  0.46931224  0.53398933     0.20700
F1435       F  0.88178617  0.47203424  0.50369645    -0.12100
F1436       F  0.81376816  0.44895220  0.49116363    -0.14500
F1437       F  0.85975148  0.48512451  0.63802000    -0.14500
F1438       F  0.79134661  0.46169173  0.62501375    -0.12100
C1439       C  0.64567575  0.43623938  0.57902503     0.25900
C1440       C  0.68057020  0.44328631  0.59250718    -0.22200
C1441       C  0.68569197  0.46161546  0.62763381     0.20800
C1442       C  0.65639719  0.47661968  0.64619395     0.25800
C1443       C  0.62197673  0.47336220  0.62961815    -0.22100
C1444       C  0.61658455  0.45148611  0.59717797     0.20700
F1445       F  0.58309032  0.44642593  0.58183841    -0.12100
F1446       F  0.64010171  0.41822987  0.54560004    -0.14500
F1447       F  0.66204052  0.49709212  0.67784256    -0.14500
F1448       F  0.71932810  0.46918798  0.64092955    -0.12100
C1449       C  0.03376185  0.79778027  0.84852106     0.25900
C1450       C  0.06891889  0.79802621  0.86470909    -0.22200
C1451       C  0.08315540  0.82956726  0.87865967     0.20800
C1452       C  0.06210550  0.85976967  0.87893055     0.25800
C1453       C  0.02608200  0.85925308  0.86519804    -0.22100
C1454       C  0.01262404  0.82832964  0.84832907     0.20700
F1455       F  0.97827412  0.82695956  0.83454636    -0.12100
F1456       F  0.01864674  0.76728018  0.83641687    -0.14500
F1457       F  0.07681049  0.88948102  0.89390737    -0.14500
F1458       F  0.11663671  0.83045639  0.89496027    -0.12100
C1459       C  0.03020612  0.64148552  0.82701268     0.25900
C1460       C  0.03855731  0.61204760  0.84880473    -0.22200
C1461       C  0.06687888  0.61360679  0.87615717     0.20800
C1462       C  0.08549887  0.64466145  0.88305208     0.25800
C1463       C  0.07632007  0.67474076  0.86251850    -0.22100
C1464       C  0.04907523  0.67270230  0.83371830     0.20700
F1465       F  0.03932873  0.70134014  0.81358832    -0.12100
F1466       F  0.00381899  0.63999357  0.79948461    -0.14500
F1467       F  0.11167499  0.64579732  0.91086634    -0.14500
F1468       F  0.07613984  0.58495917  0.89665530    -0.12100
C1469       C  0.06487229  0.87515936  0.64576996     0.25900
C1470       C  0.03127326  0.87665068  0.62635389    -0.22200
C1471       C  0.01814428  0.84642317  0.60762472     0.20800
C1472       C  0.03766517  0.81493688  0.60961700     0.25800
C1473       C  0.07063959  0.81327835  0.63036285    -0.22100
C1474       C  0.08415191  0.84384268  0.64798593     0.20700
F1475       F  0.11569837  0.84305930  0.66835158    -0.12100
F1476       F  0.07886638  0.90419881  0.66316012    -0.14500
F1477       F  0.02357593  0.78573397  0.59274619    -0.14500
F1478       F  0.98684321  0.84753384  0.58693119    -0.12100
C1479       C  0.05911099  0.67868579  0.58796770     0.25900
C1480       C  0.05555252  0.69295107  0.62508257    -0.22200
C1481       C  0.02884933  0.67826416  0.64827061     0.20800
C1482       C  0.00986160  0.64830718  0.63659699     0.25800
C1483       C  0.01568510  0.63245619  0.60085633    -0.22100
C1484       C  0.03940109  0.64911984  0.57596101     0.20700
F1485       F  0.04486569  0.63612230  0.54018570    -0.12100
F1486       F  0.08225708  0.69253979  0.56318444    -0.14500
F1487       F  0.98617857  0.63448088  0.66096147    -0.14500
F1488       F  0.01991649  0.69299847  0.68226137    -0.12100
C1489       C  0.78460153  0.14610099  0.83154926     0.25900
C1490       C  0.75381118  0.12487238  0.82562164    -0.22200
C1491       C  0.72556626  0.13862487  0.80241472     0.20800
C1492       C  0.72823613  0.17188956  0.78555652     0.25800
C1493       C  0.75936786  0.19234029  0.79112346    -0.22100
C1494       C  0.78742315  0.17854188  0.81415266     0.20700
F1495       F  0.81837639  0.19639927  0.81993737    -0.12100
F1496       F  0.81225543  0.13629471  0.85505752    -0.14500
F1497       F  0.70096696  0.18334301  0.76243799    -0.14500
F1498       F  0.69520110  0.11977110  0.79611885    -0.12100
C1499       C  0.72277278  0.34582790  0.76770192     0.25900
C1500       C  0.74542172  0.32355540  0.78909985    -0.22200
C1501       C  0.76305505  0.33777689  0.82213014     0.20800
C1502       C  0.75809825  0.37300434  0.83341275     0.25800
C1503       C  0.73580144  0.39522576  0.81166232    -0.22100
C1504       C  0.71796057  0.38095323  0.77878971     0.20700
F1505       F  0.69778922  0.40183371  0.75565145    -0.12100
F1506       F  0.70836058  0.33473292  0.73357197    -0.14500
F1507       F  0.77657386  0.38586503  0.86448187    -0.14500
F1508       F  0.78724840  0.31828633  0.84199101    -0.12100
C1509       C  0.65852932  0.22536405  0.64429545     0.25900
C1510       C  0.62676256  0.23998802  0.65906224    -0.22200
C1511       C  0.62954105  0.25852186  0.69406686     0.20800
C1512       C  0.66299845  0.26286363  0.71349533     0.25800
C1513       C  0.69498819  0.24910004  0.69817441    -0.22100
C1514       C  0.69181973  0.22949151  0.66365937     0.20700
F1515       F  0.72093592  0.21368403  0.64852479    -0.12100
F1516       F  0.65777271  0.20795699  0.61013302    -0.14500
F1517       F  0.66388507  0.28170946  0.74667716    -0.14500
F1518       F  0.59978376  0.27315622  0.70910153    -0.12100
C1519       C  0.84922954  0.23345221  0.68692520     0.25900
C1520       C  0.83278850  0.26381262  0.70161000    -0.22200
C1521       C  0.85166768  0.29534567  0.69737990     0.20800
C1522       C  0.88824162  0.29530260  0.68870856     0.25800
C1523       C  0.90709612  0.26369497  0.68159988    -0.22100
C1524       C  0.88554725  0.23330850  0.67707707     0.20700
F1525       F  0.89903676  0.20288111  0.66367451    -0.12100
F1526       F  0.83051383  0.20320629  0.68344064    -0.14500
F1527       F  0.90479590  0.32664720  0.68867302    -0.14500
F1528       F  0.83490109  0.32666606  0.70059099    -0.12100
C1529       C  0.78332741  0.15887030  0.60239810     0.25900
C1530       C  0.75236269  0.13776036  0.60549165    -0.22200
C1531       C  0.72256849  0.14569037  0.58092723     0.20800
C1532       C  0.72328182  0.17399239  0.55564022     0.25800
C1533       C  0.75405145  0.19472432  0.55308794    -0.22100
C1534       C  0.78409981  0.18658135  0.57648477     0.20700
F1535       F  0.81436116  0.20600619  0.57465308    -0.12100
F1536       F  0.81291424  0.15361296  0.62501104    -0.14500
F1537       F  0.69414408  0.18039645  0.53261959    -0.14500
F1538       F  0.69257731  0.12586734  0.58086020    -0.12100
C1539       C  0.76203455  0.33222416  0.56502103     0.25900
C1540       C  0.74890980  0.32151543  0.52847560    -0.22200
C1541       C  0.73219718  0.34650657  0.50486479     0.20800
C1542       C  0.72834435  0.38118839  0.51744250     0.25800
C1543       C  0.74182674  0.39225755  0.55376208    -0.22100
C1544       C  0.75872294  0.36738828  0.57746999     0.20700
F1545       F  0.77262531  0.37732865  0.61222764    -0.12100
F1546       F  0.77928316  0.30895454  0.58796540    -0.14500
F1547       F  0.71247777  0.40449067  0.49343967    -0.14500
F1548       F  0.72638633  0.33582957  0.97214531    -0.12100
C1549       C  0.65598203  0.27420740  0.99349694     0.25900
C1550       C  0.67757815  0.24799002  0.97729590    -0.22200
C1551       C  0.66042625  0.22260505  0.95358618     0.20800
C1552       C  0.62271504  0.22257755  0.94781952     0.25800
C1553       C  0.60071241  0.24786376  0.96574194    -0.22100
C1554       C  0.61856279  0.27460720  0.98731865     0.20700
F1555       F  0.60005852  0.30122136  0.00351854    -0.12100
F1556       F  0.67104868  0.30004315  0.01540666    -0.14500
F1557       F  0.60797637  0.19786706  0.92417780    -0.14500
F1558       F  0.68000458  0.19683518  0.93704992    -0.12100
C1559       C  0.80669014  0.25323370  0.90244523     0.25900
C1560       C  0.81287251  0.24484470  0.94143643    -0.22200
C1561       C  0.84921091  0.23867552  0.95314985     0.20800
C1562       C  0.87704225  0.23722108  0.92646203     0.25800
C1563       C  0.87005101  0.24378670  0.88754671    -0.22100
C1564       C  0.83466708  0.25276399  0.87628042     0.20700
F1565       F  0.82693778  0.26100174  0.83932397    -0.12100
F1566       F  0.77400431  0.26370639  0.88923246    -0.14500
F1567       F  0.91101968  0.22989607  0.93877913    -0.14500
F1568       F  0.85315686  0.22793077  0.48179250    -0.12100
C1569       C  0.37211327  0.76755347  0.83248313     0.25900
C1570       C  0.39415214  0.74003739  0.81906113    -0.22200
C1571       C  0.37761080  0.71520035  0.79365652     0.20800
C1572       C  0.34175002  0.71907556  0.78058939     0.25800
C1573       C  0.32123425  0.74830934  0.79121379    -0.22100
C1574       C  0.33656287  0.77191393  0.81828157     0.20700
F1575       F  0.31738113  0.80007154  0.83010228    -0.12100
F1576       F  0.38513744  0.79116203  0.85849423    -0.14500
F1577       F  0.32819887  0.69549070  0.75480444    -0.14500
F1578       F  0.39666283  0.68837828  0.77859448    -0.12100
C1579       C  0.19075303  0.73517636  0.82482835     0.25900
C1580       C  0.18754598  0.74664501  0.78684660    -0.22200
C1581       C  0.15258376  0.75295636  0.77142802     0.20800
C1582       C  0.12203689  0.74946202  0.79384821     0.25800
C1583       C  0.12537927  0.73885608  0.83198355    -0.22100
C1584       C  0.16012068  0.73134954  0.84710290     0.20700
F1585       F  0.16451882  0.72158129  0.88413583    -0.12100
F1586       F  0.22364753  0.72943546  0.84115053    -0.14500
F1587       F  0.08913673  0.75678670  0.77843546    -0.14500
F1588       F  0.14790092  0.76259711  0.73440168    -0.12100
C1589       C  0.23145066  0.66512158  0.69933372     0.25900
C1590       C  0.26000728  0.68891292  0.69885892    -0.22200
C1591       C  0.28974919  0.68063199  0.67660477     0.20800
C1592       C  0.29042698  0.65015428  0.65389535     0.25800
C1593       C  0.26076874  0.62697342  0.65218046    -0.22100
C1594       C  0.23178520  0.63457994  0.67626349     0.20700
F1595       F  0.20285728  0.61323419  0.67596703    -0.12100
F1596       F  0.20207086  0.67266033  0.72005919    -0.14500
F1597       F  0.31951077  0.64475832  0.63202795    -0.14500
F1598       F  0.31794388  0.70289279  0.67581025    -0.12100
C1599       C  0.23260416  0.81996451  0.65698614     0.25900
C1600       C  0.25078051  0.82137796  0.69316897    -0.22200
C1601       C  0.26142870  0.85482680  0.70718805     0.20800
C1602       C  0.25827995  0.88447558  0.68392687     0.25800
C1603       C  0.24370720  0.88176880  0.64649274    -0.22100
C1604       C  0.23031907  0.84924081  0.63365540     0.20700
F1605       F  0.21541516  0.84548377  0.59791237    -0.12100
F1606       F  0.21574861  0.79056481  0.64414312    -0.14500
F1607       F  0.26922289  0.91595735  0.69807668    -0.14500
F1608       F  0.27377465  0.85933267  0.74383114    -0.12100
C1609       C  0.35709134  0.75635810  0.52084828     0.25900
C1610       C  0.32886007  0.75424992  0.54707769    -0.22200
C1611       C  0.33903633  0.75239669  0.58657387     0.20800
C1612       C  0.37569970  0.75259643  0.59869672     0.25800
C1613       C  0.40321000  0.75550182  0.57211746    -0.22100
C1614       C  0.39315087  0.75747279  0.53306223     0.20700
F1615       F  0.41861589  0.75935300  0.50614924    -0.12100
F1616       F  0.35270172  0.75371883  0.98530610    -0.14500
F1617       F  0.38434127  0.74949532  0.63648719    -0.14500
F1618       F  0.31420863  0.74957947  0.61382277    -0.12100
C1619       C  0.12491968  0.77021543  0.56262927     0.25900
C1620       C  0.12065348  0.74844744  0.59434668    -0.22200
C1621       C  0.15056846  0.72788442  0.60613819     0.20800
C1622       C  0.18343651  0.72970346  0.58743960     0.25800
C1623       C  0.18798494  0.75230685  0.55648733    -0.22100
C1624       C  0.15798110  0.77209582  0.54394847     0.20700
F1625       F  0.16823591  0.80219736  0.02373724    -0.12100
F1626       F  0.09709882  0.79028592  0.55011900    -0.14500
F1627       F  0.21084450  0.70888757  0.59965251    -0.14500
F1628       F  0.14866940  0.70664768  0.63673806    -0.12100
C1629       C  0.26258484  0.67047812  0.94300909     0.25900
C1630       C  0.24002792  0.68961528  0.96745378    -0.22200
C1631       C  0.20732666  0.67421584  0.97710035     0.20800
C1632       C  0.19957755  0.63925866  0.96671409     0.25800
C1633       C  0.22469028  0.61837059  0.94671126    -0.22100
C1634       C  0.25464529  0.63570267  0.93219133     0.20700
F1635       F  0.27718451  0.61844121  0.90864773    -0.12100
F1636       F  0.29325686  0.68505660  0.93075840    -0.14500
F1637       F  0.16856916  0.62540683  0.97888708    -0.14500
F1638       F  0.18407611  0.69184041  0.99955538    -0.12100
C1639       C  0.23638886  0.81205142  0.92348535     0.25900
C1640       C  0.24519331  0.81782739  0.96243913    -0.22200
C1641       C  0.25127957  0.85256853  0.97525375     0.20800
C1642       C  0.25046652  0.88047411  0.94945264     0.25800
C1643       C  0.24289150  0.87453595  0.91029386    -0.22100
C1644       C  0.23531333  0.83999894  0.89772433     0.20700
F1645       F  0.22908696  0.83300621  0.85990577    -0.12100
F1646       F  0.23153225  0.77902586  0.90978461    -0.14500
F1647       F  0.25827458  0.91316681  0.96249859    -0.14500
F1648       F  0.25779213  0.85780160  0.51260654    -0.12100
loop_ 
_geom_bond_atom_site_label_1 
_geom_bond_atom_site_label_2 
_geom_bond_distance 
_geom_bond_site_symmetry_2 
_ccdc_geom_bond_type 
C1            C5   1.560       .  S
C1          C826   1.532       .  S
C1          C831   1.542       .  S
C1          C786   1.563       .  S
C2          C825   1.531       .  S
C2            H9   1.087       .  S
C2            C3   1.362       .  D
C3            C4   1.563       .  S
C3          C816   1.510       .  S
C4            C8   1.557       .  S
C4          C830   1.552       .  S
C4           H10   1.109       .  S
C5           H11   1.079       .  S
C5            C6   1.382       .  D
C6          C828   1.549   1_554  S
C6          C799   1.510       .  S
C7          C825   1.539       .  S
C7           H12   1.087       .  S
C7            C8   1.369       .  D
C8          C806   1.513       .  S
C13          C14   1.545       .  S
C13          C19   1.527       .  S
C13          C17   1.547       .  S
C13         C776   1.549       .  S
C14          H21   1.085       .  S
C14          C15   1.373       .  D
C15          C16   1.561       .  S
C15         C749   1.509       .  S
C16          C20   1.557       .  S
C16          C18   1.544       .  S
C16          H22   1.110       .  S
C17          H23   1.083       .  S
C17          C18   1.365       .  D
C18         C766   1.494       .  S
C19          H24   1.087       .  S
C19          C20   1.365       .  D
C20         C756   1.500       .  S
C25          C29   1.564       .  S
C25         C850   1.539       .  S
C25         C855   1.535       .  S
C25         C736   1.559       .  S
C26         C849   1.538   1_554  S
C26          H33   1.086       .  S
C26          C27   1.367       .  D
C27          C28   1.559       .  S
C27         C709   1.503       .  S
C28          C32   1.553       .  S
C28         C854   1.548   1_554  S
C28          H34   1.111       .  S
C29          H35   1.082       .  S
C29          C30   1.379       .  D
C30         C852   1.549       .  S
C30         C726   1.513       .  S
C31         C849   1.534       .  S
C31          H36   1.087       .  S
C31          C32   1.366   1_556  D
C32         C716   1.501       .  S
C37          C38   1.536       .  S
C37          C43   1.538       .  S
C37          C41   1.549       .  S
C37         C696   1.561       .  S
C38          H45   1.084       .  S
C38          C39   1.369       .  D
C39          C40   1.565       .  S
C39         C669   1.520       .  S
C40          C44   1.567       .  S
C40          C42   1.551       .  S
C40          H46   1.106       .  S
C41          H47   1.085       .  S
C41          C42   1.385       .  D
C42         C689   1.520       .  S
C43          H48   1.078       .  S
C43          C44   1.358       .  D
C44         C676   1.511       .  S
N49          C53   1.366       .  A
N49          C50   1.372       .  A
N49         C796   1.469       .  S
C50          C51   1.386       .  A
C50         C656   1.513       .  S
C51          C52   1.363       .  A
C51          H54   1.081       .  S
C52          C53   1.376       .  A
C52          H55   1.082       .  S
C53         C649   1.485       .  S
N56          C60   1.360       .  A
N56          C57   1.360       .  A
N56         C759   1.452       .  S
C57          C58   1.381       .  A
C57         C639   1.479       .  S
C58          C59   1.363       .  A
C58          H61   1.083       .  S
C59          C60   1.382       .  A
C59          H62   1.083       .  S
C60         C626   1.483       .  S
N63          C67   1.364       .  A
N63          C64   1.361       .  A
N63         C719   1.454       .  S
C64          C65   1.380       .  A
C64         C616   1.470       .  S
C65          C66   1.359       .  A
C65          H68   1.083       .  S
C66          C67   1.380       .  A
C66          H69   1.083       .  S
C67         C606   1.475       .  S
N70          C74   1.367       .  A
N70          C71   1.364       .  A
N70         C679   1.461       .  S
C71          C72   1.381       .  A
C71         C596   1.481       .  S
C72          C73   1.358       .  A
C72          H75   1.083       .  S
C73          C74   1.383       .  A
C73          H76   1.083       .  S
C74         C586   1.489       .  S
N77          C81   1.362       .  A
N77          C78   1.369       .  A
N77         C789   1.455       .  S
C78          C79   1.383       .  A
C78         C576   1.485       .  S
C79          C80   1.358       .  A
C79          H82   1.083       .  S
C80          C81   1.377       .  A
C80          H83   1.083       .  S
C81         C566   1.472       .  S
N84          C88   1.368       .  A
N84          C85   1.366       .  A
N84         C746   1.469       .  S
C85          C86   1.379       .  A
C85         C546   1.479       .  S
C86          C87   1.353       .  A
C86          H89   1.083       .  S
C87          C88   1.382       .  A
C87          H90   1.083       .  S
C88         C556   1.477       .  S
N91          C95   1.368       .  A
N91          C92   1.371       .  A
N91         C706   1.472       .  S
C92          C93   1.383       .  A
C92         C539   1.499       .  S
C93          C94   1.356       .  A
C93          H96   1.081       .  S
C94          C95   1.379       .  A
C94          H97   1.082       .  S
C95         C526   1.481       .  S
N98         C102   1.366       .  A
N98          C99   1.363       .  A
N98         C666   1.474       .  S
C99         C100   1.386       .  A
C99         C509   1.490       .  S
C100        C101   1.362       .  A
C100        H103   1.083       .  S
C101        C102   1.383       .  A
C101        H104   1.083       .  S
C102        C519   1.496       .  S
N105        C109   1.371       .  A
N105        C106   1.372       .  A
N105        C699   1.478       .  S
C106        C107   1.383       .  A
C106        C486   1.496       .  S
C107        C108   1.357       .  A
C107        H110   1.082   1_655  S
C108        C109   1.380       .  A
C108        H111   1.083   1_655  S
C109        C496   1.489       .  S
N112        C116   1.362       .  A
N112        C113   1.362       .  A
N112        C739   1.458       .  S
C113        C114   1.382       .  A
C113        C476   1.483       .  S
C114        C115   1.360       .  A
C114        H117   1.081       .  S
C115        C116   1.380       .  A
C115        H118   1.078       .  S
C116        C466   1.482       .  S
Zn119       O123   1.872   1_565  S
Zn119       O124   1.954   1_565  S
Zn119       O128   1.947       .  S
Zn119       O135   1.972       .  S
Zn120       O123   1.941       .  S
Zn120       O125   2.013       .  S
Zn120       O127   2.050       .  S
Zn120       O131   2.000       .  S
Zn121       O123   1.929   1_655  S
Zn121       O126   2.045       .  S
Zn121       O129   2.045       .  S
Zn121       O132   1.963       .  S
Zn122       O123   1.941   1_665  S
Zn122       O130   2.089       .  S
Zn122       O133   2.012       .  S
Zn122       O134   2.120       .  S
O124        C136   1.263       .  A
O125        C137   1.277       .  A
O126        C138   1.277       .  A
O127        C136   1.274       .  A
O128        C138   1.265   1_465  A
O129        C137   1.279   1_655  A
O130        C139   1.286   1_565  A
O131        C140   1.271   1_445  A
O132        C139   1.268       .  A
O133        C140   1.274       .  A
O134        C141   1.288   1_655  A
O135        C141   1.269       .  A
C136        C459   1.474   1_545  S
C137        C499   1.483   1_455  S
C138        C986   1.457   1_544  S
C139        C536   1.474       .  S
C140        C159   1.462       .  S
C141        C646   1.493       .  S
Zn142       O146   1.957       .  S
Zn142       O147   1.995       .  S
Zn142       O151   2.072       .  S
Zn142       O158   2.081       .  S
Zn143       O146   1.971   1_445  S
Zn143       O148   2.092   1_455  S
Zn143       O150   2.015       .  S
Zn143       O154   2.070       .  S
Zn144       O146   1.922   1_545  S
Zn144       O149   1.981   1_545  S
Zn144       O152   1.948       .  S
Zn144       O155   2.018       .  S
Zn145       O146   1.916   1_455  S
Zn145       O153   1.982       .  S
Zn145       O156   1.959       .  S
Zn145       O157   1.983   1_455  S
O147        C159   1.270       .  A
O148        C160   1.284       .  A
O149        C161   1.272       .  A
O150        C159   1.273   1_445  A
O151        C161   1.281       .  A
O152        C160   1.265       .  A
O153        C162   1.269   1_455  A
O154        C163   1.281   1_545  A
O155        C162   1.269   1_545  A
O156        C163   1.264       .  A
O157        C164   1.272   1_655  A
O158        C164   1.280   1_655  A
C160        C479   1.495       .  S
C161        C516   1.476       .  S
C162        C962   1.462   1_565  S
C163        C446   1.471       .  S
C164        C629   1.490       .  S
N165        C169   1.355       .  A
N165        C166   1.355       .  A
N165        C779   1.452       .  S
C166        C167   1.382       .  A
C166        C436   1.471       .  S
C167        C168   1.364       .  A
C167        H170   1.083       .  S
C168        C169   1.382       .  A
C168        H171   1.082       .  S
C169        C456   1.473       .  S
N172        C176   1.362       .  A
N172        C173   1.366       .  A
N172        C819   1.457       .  S
C173        C174   1.386       .  A
C173        C449   1.490       .  S
C174        C175   1.362       .  A
C174        H177   1.082       .  S
C175        C176   1.378       .  A
C175        H178   1.083       .  S
C176        C426   1.477       .  S
Zn179       O183   1.949   1_565  S
Zn179       O184   2.058   1_565  S
Zn179       O188   1.994       .  S
Zn179       O195   2.064       .  S
Zn180       O183   1.930       .  S
Zn180       O185   1.996       .  S
Zn180       O187   1.985       .  S
Zn180       O191   2.038       .  S
Zn181       O183   1.921       .  S
Zn181       O186   2.033   1_545  S
Zn181       O189   2.061       .  S
Zn181       O192   2.044       .  S
Zn182       O183   1.890   1_565  S
Zn182       O190   1.949       .  S
Zn182       O193   1.991       .  S
Zn182       O194   1.975       .  S
O184        C196   1.283       .  A
O185        C197   1.271       .  A
O186        C198   1.273       .  A
O187        C196   1.272       .  A
O188        C198   1.267       .  A
O189        C197   1.280       .  A
O190        C199   1.268       .  A
O191        C200   1.275       .  A
O192        C199   1.281   1_545  A
O193        C200   1.271   1_565  A
O194        C201   1.268       .  A
O195        C201   1.283       .  A
C196        C529   1.494       .  S
C197        C416   1.489       .  S
C198       C1045   1.461       .  S
C199        C439   1.475       .  S
C200        C223   1.458   1_545  S
C201        C579   1.484       .  S
Zn202       O206   1.927       .  S
Zn202       O207   1.949       .  S
Zn202       O211   2.024       .  S
Zn202       O218   2.009       .  S
Zn203       O206   1.988   1_545  S
Zn203       O208   2.078       .  S
Zn203       O210   2.101   1_545  S
Zn203       O214   2.050       .  S
Zn204       O206   1.911   1_545  S
Zn204       O209   1.983   1_545  S
Zn204       O212   1.914       .  S
Zn204       O215   1.974       .  S
Zn205       O206   1.923       .  S
Zn205       O213   2.055       .  S
Zn205       O216   1.970       .  S
Zn205       O217   2.007       .  S
O207        C219   1.264       .  A
O208        C220   1.281       .  A
O209        C221   1.267       .  A
O210        C219   1.285       .  A
O211        C221   1.272       .  A
O212        C220   1.260       .  A
O213        C222   1.275   1_565  A
O214        C223   1.276   1_545  A
O215        C222   1.268       .  A
O216        C223   1.266       .  A
O217        C224   1.278       .  A
O218        C224   1.276       .  A
C219        C429   1.487       .  S
C220        C406   1.483       .  S
C221       C1022   1.458       .  S
C222        C506   1.485       .  S
C224        C559   1.481       .  S
N225        C229   1.364       .  A
N225        C226   1.361       .  A
N225        C686   1.456       .  S
C226        C227   1.376       .  A
C226        C399   1.482       .  S
C227        C228   1.362       .  A
C227        H230   1.078       .  S
C228        C229   1.378       .  A
C228        H231   1.078       .  S
C229        C419   1.488       .  S
N232        C236   1.363       .  A
N232        C233   1.364       .  A
N232        C729   1.470       .  S
C233        C234   1.381       .  A
C233        C386   1.468       .  S
C234        C235   1.354       .  A
C234        H237   1.083       .  S
C235        C236   1.379       .  A
C235        H238   1.083       .  S
C236        C409   1.462       .  S
Zn239       O243   1.928   1_655  S
Zn239       O244   2.030       .  S
Zn239       O248   2.074       .  S
Zn239       O255   2.078       .  S
Zn240       O243   1.941       .  S
Zn240       O245   2.044       .  S
Zn240       O247   1.993       .  S
Zn240       O251   2.035       .  S
Zn241       O243   1.916   1_655  S
Zn241       O246   1.965       .  S
Zn241       O249   1.986       .  S
Zn241       O252   2.009   1_554  S
Zn242       O243   1.913       .  S
Zn242       O250   2.006   1_554  S
Zn242       O253   2.004       .  S
Zn242       O254   1.985       .  S
O244        C256   1.275   1_655  A
O245        C257   1.280       .  A
O246        C258   1.267       .  A
O247        C256   1.268       .  A
O248        C258   1.282       .  A
O249        C257   1.271   1_655  A
O250        C259   1.273   1_455  A
O251        C260   1.278       .  A
O252        C259   1.274       .  A
O253        C260   1.274       .  A
O254        C261   1.269       .  A
O255        C261   1.284   1_655  A
C256        C280   1.461       .  S
C257        C489   1.484       .  S
C258        C609   1.475       .  S
C259       C1108   1.458       .  S
C260        C376   1.491       .  S
C261        C659   1.499       .  S
Zn262       O266   1.971       .  S
Zn262       O267   2.117       .  S
Zn262       O271   2.083       .  S
Zn262       O278   2.038       .  S
Zn263       O266   1.900       .  S
Zn263       O268   1.998       .  S
Zn263       O270   1.926       .  S
Zn263       O274   1.987       .  S
Zn264       O266   1.939   1_455  S
Zn264       O269   1.952       .  S
Zn264       O272   2.015       .  S
Zn264       O275   1.992       .  S
Zn265       O266   1.946   1_455  S
Zn265       O273   2.037       .  S
Zn265       O276   2.052   1_455  S
Zn265       O277   1.984   1_455  S
O267        C279   1.285       .  A
O268        C280   1.269   1_655  A
O269        C281   1.265       .  A
O270        C279   1.263       .  A
O271        C281   1.283   1_655  A
O272        C280   1.273       .  A
O273        C282   1.279       .  A
O274        C283   1.272       .  A
O275        C282   1.271       .  A
O276        C283   1.279       .  A
O277        C284   1.267       .  A
O278        C284   1.276       .  A
C279        C589   1.483       .  S
C281        C636   1.491       .  S
C282        C366   1.489       .  S
C283        C469   1.495       .  S
C284       C1083   1.462       .  S
N285        C289   1.363       .  A
N285        C286   1.358       .  A
N285        C769   1.464       .  S
C286        C287   1.381       .  A
C286        C379   1.485       .  S
C287        C288   1.364       .  A
C287        H290   1.078       .  S
C288        C289   1.384       .  A
C288        H291   1.078       .  S
C289        C356   1.503       .  S
N292        C296   1.364       .  A
N292        C293   1.367       .  A
N292        C809   1.469       .  S
C293        C294   1.385       .  A
C293        C369   1.496       .  S
C294        C295   1.359       .  A
C294        H297   1.082       .  S
C295        C296   1.380       .  A
C295        H298   1.080       .  S
C296        C346   1.480       .  S
Zn299       O303   1.930       .  S
Zn299       O304   2.024       .  S
Zn299       O308   1.990       .  S
Zn299       O315   1.922       .  S
Zn300       O303   1.926       .  S
Zn300       O305   1.988       .  S
Zn300       O307   2.001       .  S
Zn300       O311   1.992       .  S
Zn301       O303   1.938       .  S
Zn301       O306   2.009       .  S
Zn301       O309   2.020       .  S
Zn301       O312   1.950       .  S
Zn302       O303   1.979       .  S
Zn302       O310   2.106       .  S
Zn302       O313   2.032       .  S
Zn302       O314   2.084       .  S
O304        C316   1.273       .  A
O305        C317   1.272       .  A
O306        C318   1.273       .  A
O307        C316   1.274       .  A
O308        C318   1.270       .  A
O309        C317   1.274       .  A
O310        C319   1.285       .  A
O311        C320   1.266       .  A
O312        C319   1.264       .  A
O313        C320   1.276       .  A
O314        C321   1.283       .  A
O315        C321   1.263       .  A
C316        C569   1.477       .  S
C317        C619   1.469       .  S
C318        C341   1.459       .  S
C319        C396   1.491       .  S
C320       C1167   1.468       .  S
C321        C359   1.477       .  S
Zn322       O326   1.922       .  S
Zn322       O327   1.932       .  S
Zn322       O331   1.984       .  S
Zn322       O338   1.976       .  S
Zn323       O326   1.997       .  S
Zn323       O328   2.087       .  S
Zn323       O330   2.096       .  S
Zn323       O334   2.055       .  S
Zn324       O326   1.922       .  S
Zn324       O329   1.998       .  S
Zn324       O332   1.917       .  S
Zn324       O335   1.994       .  S
Zn325       O326   1.918       .  S
Zn325       O333   2.025       .  S
Zn325       O336   1.949       .  S
Zn325       O337   1.996       .  S
O327        C339   1.262       .  A
O328        C340   1.281       .  A
O329        C341   1.271       .  A
O330        C339   1.282       .  A
O331        C341   1.268       .  A
O332        C340   1.261       .  A
O333        C342   1.273       .  A
O334        C343   1.279       .  A
O335        C342   1.269       .  A
O336        C343   1.265       .  A
O337        C344   1.273       .  A
O338        C344   1.269       .  A
C339        C599   1.488       .  S
C340        C549   1.465       .  S
C342        C349   1.467       .  S
C343       C1144   1.461       .  S
C344        C389   1.472       .  S
C345        C346   1.413       .  A
C345        C350   1.401       .  A
C345        F352   1.358       .  S
C346        C347   1.401       .  A
C347        C348   1.398       .  A
C347        F354   1.356       .  S
C348        C349   1.407       .  A
C348        F353   1.359       .  S
C349        C350   1.398       .  A
C350        F351   1.357       .  S
C355        C356   1.407       .  A
C355        C360   1.401       .  A
C355        F362   1.356       .  S
C356        C357   1.422       .  A
C357        C358   1.399       .  A
C357        F364   1.354       .  S
C358        C359   1.398       .  A
C358        F363   1.358       .  S
C359        C360   1.411       .  A
C360        F361   1.359       .  S
C365        C366   1.410       .  A
C365        C370   1.397       .  A
C365        F372   1.358       .  S
C366        C367   1.410       .  A
C367        C368   1.408       .  A
C367        F374   1.357       .  S
C368        C369   1.411       .  A
C368        F373   1.357       .  S
C369        C370   1.408       .  A
C370        F371   1.356       .  S
C375        C376   1.415       .  A
C375        C380   1.397       .  A
C375        F382   1.355       .  S
C376        C377   1.408       .  A
C377        C378   1.402       .  A
C377        F384   1.357       .  S
C378        C379   1.411       .  A
C378        F383   1.358       .  S
C379        C380   1.400       .  A
C380        F381   1.358       .  S
C385        C386   1.405       .  A
C385        C390   1.399       .  A
C385        F392   1.358       .  S
C386        C387   1.402       .  A
C387        C388   1.390       .  A
C387        F394   1.359       .  S
C388        C389   1.410       .  A
C388        F393   1.359       .  S
C389        C390   1.407       .  A
C390        F391   1.358       .  S
C395        C396   1.420       .  A
C395        C400   1.400       .  A
C395        F402   1.358       .  S
C396        C397   1.402       .  A
C397        C398   1.404       .  A
C397        F404   1.357       .  S
C398        C399   1.413       .  A
C398        F403   1.358       .  S
C399        C400   1.396       .  A
C400        F401   1.358       .  S
C405        C406   1.421       .  A
C405        C410   1.389       .  A
C405        F412   1.358       .  S
C406        C407   1.405       .  A
C407        C408   1.401       .  A
C407        F414   1.357       .  S
C408        C409   1.409       .  A
C408        F413   1.358       .  S
C409        C410   1.390       .  A
C410        F411   1.356       .  S
C415        C416   1.409       .  A
C415        C420   1.399       .  A
C415        F422   1.358       .  S
C416        C417   1.410       .  A
C417        C418   1.407       .  A
C417        F424   1.357       .  S
C418        C419   1.409       .  A
C418        F423   1.358       .  S
C419        C420   1.405       .  A
C420        F421   1.357       .  S
C425        C426   1.412       .  A
C425        C430   1.404       .  A
C425        F432   1.358       .  S
C426        C427   1.397       .  A
C427        C428   1.400       .  A
C427        F434   1.358       .  S
C428        C429   1.418       .  A
C428        F433   1.359       .  S
C429        C430   1.402       .  A
C430        F431   1.357   1_565  S
C435        C436   1.393       .  A
C435        C440   1.393       .  A
C435        F442   1.358       .  S
C436        C437   1.413       .  A
C437        C438   1.397       .  A
C437        F444   1.358       .  S
C438        C439   1.401       .  A
C438        F443   1.358   1_565  S
C439        C440   1.418       .  A
C440        F441   1.358       .  S
C445        C446   1.402       .  A
C445        C450   1.397       .  A
C445        F452   1.359       .  S
C446        C447   1.405       .  A
C447        C448   1.404       .  A
C447        F454   1.358       .  S
C448        C449   1.411       .  A
C448        F453   1.356       .  S
C449        C450   1.411       .  A
C450        F451   1.358       .  S
C455        C456   1.411       .  A
C455        C460   1.400       .  A
C455        F462   1.358       .  S
C456        C457   1.399       .  A
C457        C458   1.390       .  A
C457        F464   1.359       .  S
C458        C459   1.412       .  A
C458        F463   1.358       .  S
C459        C460   1.403       .  A
C460        F461   1.358   1_565  S
C465        C466   1.400       .  A
C465        C470   1.394       .  A
C465        F472   1.356       .  S
C466        C467   1.408       .  A
C467        C468   1.407       .  A
C467        F474   1.357       .  S
C468        C469   1.412       .  A
C468        F473   1.357       .  S
C469        C470   1.416       .  A
C470        F471   1.358       .  S
C475        C476   1.394       .  A
C475        C480   1.398       .  A
C475        F482   1.356       .  S
C476        C477   1.413       .  A
C477        C478   1.402       .  A
C477        F484   1.358       .  S
C478        C479   1.406       .  A
C478        F483   1.358   1_655  S
C479        C480   1.422       .  A
C480        F481   1.358       .  S
C485        C486   1.408       .  A
C485        C490   1.404       .  A
C485        F492   1.356       .  S
C486        C487   1.412       .  A
C487        C488   1.398   1_655  A
C487        F494   1.359       .  S
C488        C489   1.407       .  A
C488        F493   1.359       .  S
C489        C490   1.410   1_455  A
C490        F491   1.358       .  S
C495        C496   1.403       .  A
C495        C500   1.394       .  A
C495        F502   1.355       .  S
C496        C497   1.412       .  A
C497        C498   1.408       .  A
C497        F504   1.356       .  S
C498        C499   1.407       .  A
C498        F503   1.357       .  S
C499        C500   1.408       .  A
C500        F501   1.359       .  S
C505        C506   1.412       .  A
C505        C510   1.395       .  A
C505        F512   1.357       .  S
C506        C507   1.404       .  A
C507        C508   1.408       .  A
C507        F514   1.357   1_545  S
C508        C509   1.416       .  A
C508        F513   1.356       .  S
C509        C510   1.401       .  A
C510        F511   1.359       .  S
C515        C516   1.411   1_545  A
C515        C520   1.407       .  A
C515        F522   1.358       .  S
C516        C517   1.401       .  A
C517        C518   1.400   1_565  A
C517        F524   1.358       .  S
C518        C519   1.416       .  A
C518        F523   1.358       .  S
C519        C520   1.403       .  A
C520        F521   1.356       .  S
C525        C526   1.400       .  A
C525        C530   1.397       .  A
C525        F532   1.359       .  S
C526        C527   1.408       .  A
C527        C528   1.403       .  A
C527        F534   1.357       .  S
C528        C529   1.409       .  A
C528        F533   1.357       .  S
C529        C530   1.418       .  A
C530        F531   1.358       .  S
C535        C536   1.402       .  A
C535        C540   1.394       .  A
C535        F542   1.359       .  S
C536        C537   1.407       .  A
C537        C538   1.411       .  A
C537        F544   1.357       .  S
C538        C539   1.413       .  A
C538        F543   1.357       .  S
C539        C540   1.411       .  A
C540        F541   1.358       .  S
C545        C546   1.411       .  A
C545        C550   1.409       .  A
C545        F552   1.356       .  S
C546        C547   1.403       .  A
C547        C548   1.387       .  A
C547        F554   1.358       .  S
C548        C549   1.403       .  A
C548        F553   1.359       .  S
C549        C550   1.405       .  A
C550        F551   1.357       .  S
C555        C556   1.401       .  A
C555        C560   1.392       .  A
C555        F562   1.358       .  S
C556        C557   1.411       .  A
C557        C558   1.405       .  A
C557        F564   1.357       .  S
C558        C559   1.407       .  A
C558        F563   1.358       .  S
C559        C560   1.412       .  A
C560        F561   1.358       .  S
C565        C566   1.400       .  A
C565        C570   1.394       .  A
C565        F572   1.358       .  S
C566        C567   1.410       .  A
C567        C568   1.406       .  A
C567        F574   1.358       .  S
C568        C569   1.404       .  A
C568        F573   1.356       .  S
C569        C570   1.408       .  A
C570        F571   1.359       .  S
C575        C576   1.407       .  A
C575        C580   1.405       .  A
C575        F582   1.357       .  S
C576        C577   1.408       .  A
C577        C578   1.400       .  A
C577        F584   1.358       .  S
C578        C579   1.407       .  A
C578        F583   1.358       .  S
C579        C580   1.410       .  A
C580        F581   1.358       .  S
C585        C586   1.413       .  A
C585        C590   1.411       .  A
C585        F592   1.357       .  S
C586        C587   1.405       .  A
C587        C588   1.395       .  A
C587        F594   1.359       .  S
C588        C589   1.409       .  A
C588        F593   1.359       .  S
C589        C590   1.407       .  A
C590        F591   1.357       .  S
C595        C596   1.396       .  A
C595        C600   1.399       .  A
C595        F602   1.357       .  S
C596        C597   1.414       .  A
C597        C598   1.400       .  A
C597        F604   1.358       .  S
C598        C599   1.402       .  A
C598        F603   1.357       .  S
C599        C600   1.420       .  A
C600        F601   1.359       .  S
C605        C606   1.404       .  A
C605        C610   1.397       .  A
C605        F612   1.358   1_554  S
C606        C607   1.408       .  A
C607        C608   1.403       .  A
C607        F614   1.357       .  S
C608        C609   1.405       .  A
C608        F613   1.358       .  S
C609        C610   1.407       .  A
C610        F611   1.358   1_554  S
C615        C616   1.398       .  A
C615        C620   1.393       .  A
C615        F622   1.358       .  S
C616        C617   1.413       .  A
C617        C618   1.405       .  A
C617        F624   1.357       .  S
C618        C619   1.400       .  A
C618        F623   1.357       .  S
C619        C620   1.408       .  A
C620        F621   1.359       .  S
C625        C626   1.413       .  A
C625        C630   1.411       .  A
C625        F632   1.357       .  S
C626        C627   1.399       .  A
C627        C628   1.394       .  A
C627        F634   1.359       .  S
C628        C629   1.413       .  A
C628        F633   1.356       .  S
C629        C630   1.407       .  A
C630        F631   1.357   1_455  S
C635        C636   1.404       .  A
C635        C640   1.400       .  A
C635        F642   1.357   1_455  S
C636        C637   1.422       .  A
C637        C638   1.399       .  A
C637        F644   1.358       .  S
C638        C639   1.395       .  A
C638        F643   1.358       .  S
C639        C640   1.412       .  A
C640        F641   1.358       .  S
C645        C646   1.415       .  A
C645        C650   1.401       .  A
C645        F652   1.358       .  S
C646        C647   1.406       .  A
C647        C648   1.409       .  A
C647        F654   1.357   1_455  S
C648        C649   1.412       .  A
C648        F653   1.358       .  S
C649        C650   1.400       .  A
C650        F651   1.358       .  S
C655        C656   1.408       .  A
C655        C660   1.407       .  A
C655        F662   1.355       .  S
C656        C657   1.423       .  A
C657        C658   1.400       .  A
C657        F664   1.356       .  S
C658        C659   1.401       .  A
C658        F663   1.358   1_455  S
C659        C660   1.418       .  A
C660        F661   1.357       .  S
C665        C666   1.419       .  A
C665        C670   1.401       .  A
C665        F672   1.355       .  S
C666        C667   1.417       .  A
C667        C668   1.419       .  A
C667        F674   1.357       .  S
C668        C669   1.413       .  A
C668        F673   1.357       .  S
C669        C670   1.410       .  A
C670        F671   1.354       .  S
C675        C676   1.409       .  A
C675        C680   1.408       .  A
C675        F682   1.356       .  S
C676        C677   1.415       .  A
C677        C678   1.414       .  A
C677        F684   1.353       .  S
C678        C679   1.406       .  A
C678        F683   1.355       .  S
C679        C680   1.415       .  A
C680        F681   1.357       .  S
C685        C686   1.414       .  A
C685        C690   1.405       .  A
C685        F692   1.357       .  S
C686        C687   1.402       .  A
C687        C688   1.411       .  A
C687        F694   1.357       .  S
C688        C689   1.420       .  A
C688        F693   1.355       .  S
C689        C690   1.413       .  A
C690        F691   1.357       .  S
C695        C696   1.412       .  A
C695        C700   1.411       .  A
C695        F702   1.357       .  S
C696        C697   1.415       .  A
C697        C698   1.406       .  A
C697        F704   1.356       .  S
C698        C699   1.421       .  A
C698        F703   1.354       .  S
C699        C700   1.419       .  A
C700        F701   1.352       .  S
C705        C706   1.421       .  A
C705        C710   1.407       .  A
C705        F712   1.355       .  S
C706        C707   1.421       .  A
C707        C708   1.411       .  A
C707        F714   1.353       .  S
C708        C709   1.404       .  A
C708        F713   1.358       .  S
C709        C710   1.406       .  A
C710        F711   1.358       .  S
C715        C716   1.411       .  A
C715        C720   1.417       .  A
C715        F722   1.357       .  S
C716        C717   1.406       .  A
C717        C718   1.400       .  A
C717       F1548   1.358   1_554  S
C718        C719   1.409       .  A
C718        F723   1.357   1_554  S
C719        C720   1.409       .  A
C720        F721   1.356       .  S
F724       C1541   1.359       .  S
C725        C726   1.407       .  A
C725        C730   1.402       .  A
C725        F732   1.355       .  S
C726        C727   1.412       .  A
C727        C728   1.416       .  A
C727        F734   1.357       .  S
C728        C729   1.417       .  A
C728        F733   1.355       .  S
C729        C730   1.417       .  A
C730        F731   1.355       .  S
C735        C736   1.415       .  A
C735        C740   1.407       .  A
C735        F742   1.354       .  S
C736        C737   1.426       .  A
C737        C738   1.411       .  A
C737       F1568   1.357       .  S
C738        C739   1.401       .  A
C738        F743   1.357       .  S
C739        C740   1.412       .  A
C740        F741   1.356       .  S
F744       C1561   1.357       .  S
C745        C746   1.415       .  A
C745        C750   1.413       .  A
C745        F752   1.355       .  S
C746        C747   1.420       .  A
C747        C748   1.407       .  A
C747        F754   1.356       .  S
C748        C749   1.405       .  A
C748        F753   1.354       .  S
C749        C750   1.410       .  A
C750        F751   1.358       .  S
C755        C756   1.403       .  A
C755        C760   1.408       .  A
C755        F762   1.357       .  S
C756        C757   1.414       .  A
C757        C758   1.408       .  A
C757        F764   1.357       .  S
C758        C759   1.401       .  A
C758        F763   1.355       .  S
C759        C760   1.416       .  A
C760        F761   1.357       .  S
C765        C766   1.405       .  A
C765        C770   1.410       .  A
C765        F772   1.358       .  S
C766        C767   1.403       .  A
C767        C768   1.401       .  A
C767        F774   1.358       .  S
C768        C769   1.420       .  A
C768        F773   1.357       .  S
C769        C770   1.414       .  A
C770        F771   1.356       .  S
C775        C776   1.417       .  A
C775        C780   1.399       .  A
C775        F782   1.356       .  S
C776        C777   1.419       .  A
C777        C778   1.411       .  A
C777        F784   1.357       .  S
C778        C779   1.405       .  A
C778        F783   1.357       .  S
C779        C780   1.408       .  A
C780        F781   1.358       .  S
C785        C786   1.419       .  A
C785        C790   1.401       .  A
C785       F1616   1.359   1_554  S
C786        C787   1.423       .  A
C787        C788   1.419       .  A
C787        F794   1.351       .  S
C788        C789   1.406       .  A
C788        F793   1.356       .  S
C789        C790   1.405       .  A
C790        F791   1.358       .  S
F792       C1609   1.359       .  S
C795        C796   1.412       .  A
C795        C800   1.413       .  A
C795        F802   1.356       .  S
C796        C797   1.422       .  A
C797        C798   1.409       .  A
C797        F804   1.357       .  S
C798        C799   1.408       .  A
C798        F803   1.358       .  S
C799        C800   1.410       .  A
C800       F1625   1.357       .  S
F801       C1624   1.357       .  S
C805        C806   1.411       .  A
C805        C810   1.410       .  A
C805        F812   1.358       .  S
C806        C807   1.410       .  A
C807        C808   1.412       .  A
C807        F814   1.356       .  S
C808        C809   1.420       .  A
C808        F813   1.356       .  S
C809        C810   1.411       .  A
C810        F811   1.355       .  S
C815        C816   1.406       .  A
C815        C820   1.413       .  A
C815        F822   1.355       .  S
C816        C817   1.416       .  A
C817        C818   1.408       .  A
C817       F1648   1.357       .  S
C818        C819   1.403       .  A
C818        F823   1.356       .  S
C819        C820   1.415       .  A
C820        F821   1.357       .  S
F824       C1641   1.357   1_554  S
C825        C829   1.559       .  S
C825       C1610   1.564       .  S
C826        H833   1.087       .  S
C826        C827   1.362   1_554  D
C827        C828   1.558       .  S
C827       C1640   1.505       .  S
C828        C832   1.556       .  S
C828        H834   1.110       .  S
C829        H835   1.079       .  S
C829        C830   1.384       .  D
C830       C1623   1.514       .  S
C831        H836   1.086       .  S
C831        C832   1.370   1_554  D
C832       C1630   1.512       .  S
C837        C838   1.543       .  S
C837        C843   1.526       .  S
C837        C841   1.546       .  S
C837       C1600   1.548       .  S
C838        H845   1.085       .  S
C838        C839   1.373       .  D
C839        C840   1.564       .  S
C839       C1573   1.511       .  S
C840        C844   1.564       .  S
C840        C842   1.546       .  S
C840        H846   1.110       .  S
C841        H847   1.084       .  S
C841        C842   1.365       .  D
C842       C1590   1.497       .  S
C843        H848   1.086       .  S
C843        C844   1.366       .  D
C844       C1580   1.509       .  S
C849        C853   1.564       .  S
C849       C1560   1.562       .  S
C850        H857   1.086       .  S
C850        C851   1.365       .  D
C851        C852   1.554       .  S
C851       C1533   1.501       .  S
C852        C856   1.551       .  S
C852        H858   1.110       .  S
C853        H859   1.081       .  S
C853        C854   1.377       .  D
C854       C1550   1.515       .  S
C855        H860   1.087       .  S
C855        C856   1.364       .  D
C856       C1540   1.499       .  S
C861        C862   1.535       .  S
C861        C867   1.537       .  S
C861        C865   1.547       .  S
C861       C1520   1.555       .  S
C862        H869   1.085       .  S
C862        C863   1.366       .  D
C863        C864   1.564       .  S
C863       C1493   1.513       .  S
C864        C868   1.568       .  S
C864        C866   1.552       .  S
C864        H870   1.108       .  S
C865        H871   1.085       .  S
C865        C866   1.382       .  D
C866       C1513   1.519       .  S
C867        H872   1.082       .  S
C867        C868   1.359       .  D
C868       C1500   1.508       .  S
N873        C877   1.364       .  A
N873        C874   1.372       .  A
N873       C1620   1.466       .  S
C874        C875   1.387       .  A
C874       C1480   1.513       .  S
C875        C876   1.362       .  A
C875        H878   1.080       .  S
C876        C877   1.378       .  A
C876        H879   1.083       .  S
C877       C1473   1.487       .  S
N880        C884   1.361       .  A
N880        C881   1.361       .  A
N880       C1583   1.454       .  S
C881        C882   1.381       .  A
C881       C1463   1.478       .  S
C882        C883   1.363       .  A
C882        H885   1.083       .  S
C883        C884   1.381       .  A
C883        H886   1.083       .  S
C884       C1450   1.480       .  S
N887        C891   1.361       .  A
N887        C888   1.361       .  A
N887       C1543   1.454       .  S
C888        C889   1.381       .  A
C888       C1440   1.468       .  S
C889        C890   1.357       .  A
C889        H892   1.083       .  S
C890        C891   1.378       .  A
C890        H893   1.083       .  S
C891       C1430   1.468       .  S
N894        C898   1.365       .  A
N894        C895   1.365       .  A
N894       C1503   1.459       .  S
C895        C896   1.382       .  A
C895       C1420   1.484       .  S
C896        C897   1.358       .  A
C896        H899   1.083       .  S
C897        C898   1.380       .  A
C897        H900   1.083       .  S
C898       C1410   1.481       .  S
N901        C905   1.363       .  A
N901        C902   1.371       .  A
N901       C1613   1.460       .  S
C902        C903   1.385       .  A
C902       C1400   1.494       .  S
C903        C904   1.359       .  A
C903        H906   1.082       .  S
C904        C905   1.380       .  A
C904        H907   1.083       .  S
C905       C1390   1.481       .  S
N908        C912   1.370       .  A
N908        C909   1.370       .  A
N908       C1570   1.473       .  S
C909        C910   1.378       .  A
C909       C1370   1.483       .  S
C910        C911   1.351       .  A
C910        H913   1.083       .  S
C911        C912   1.383       .  A
C911        H914   1.083       .  S
C912       C1380   1.483       .  S
N915        C919   1.364       .  A
N915        C916   1.370       .  A
N915       C1530   1.471       .  S
C916        C917   1.385       .  A
C916       C1363   1.503       .  S
C917        C918   1.359       .  A
C917        H920   1.081       .  S
C918        C919   1.379       .  A
C918        H921   1.082       .  S
C919       C1350   1.480       .  S
N922        C926   1.366       .  A
N922        C923   1.362       .  A
N922       C1490   1.470       .  S
C923        C924   1.386       .  A
C923       C1333   1.488       .  S
C924        C925   1.362       .  A
C924        H927   1.083       .  S
C925        C926   1.383       .  A
C925        H928   1.083       .  S
C926       C1343   1.495       .  S
N929        C933   1.372       .  A
N929        C930   1.374       .  A
N929       C1523   1.478       .  S
C930        C931   1.382       .  A
C930       C1310   1.498       .  S
C931        C932   1.356       .  A
C931        H934   1.082   1_655  S
C932        C933   1.381       .  A
C932        H935   1.083   1_655  S
C933       C1320   1.490       .  S
N936        C940   1.363       .  A
N936        C937   1.361       .  A
N936       C1563   1.459       .  S
C937        C938   1.382       .  A
C937       C1300   1.479       .  S
C938        C939   1.360       .  A
C938        H941   1.082       .  S
C939        C940   1.383       .  A
C939        H942   1.082       .  S
C940       C1290   1.481       .  S
Zn943       O947   1.886   1_465  S
Zn943       O948   1.961   1_565  S
Zn943       O952   1.958       .  S
Zn943       O959   1.957       .  S
Zn944       O947   1.944   1_455  S
Zn944       O949   2.010       .  S
Zn944       O951   2.045       .  S
Zn944       O955   1.987       .  S
Zn945       O947   1.932       .  S
Zn945       O950   2.047       .  S
Zn945       O953   2.031       .  S
Zn945       O956   1.960       .  S
Zn946       O947   1.951   1_565  S
Zn946       O954   2.104       .  S
Zn946       O957   2.028       .  S
Zn946       O958   2.120       .  S
O948        C960   1.265   1_545  A
O949        C961   1.277   1_455  A
O950        C962   1.276       .  A
O951        C960   1.272   1_545  A
O952        C962   1.267   1_465  A
O953        C961   1.278       .  A
O954        C963   1.288   1_565  A
O955        C964   1.269   1_445  A
O956        C963   1.267       .  A
O957        C964   1.275       .  A
O958        C965   1.288   1_655  A
O959        C965   1.266       .  A
C960       C1283   1.479       .  S
C961       C1323   1.481       .  S
C963       C1360   1.478       .  S
C964        C983   1.463       .  S
C965       C1470   1.483       .  S
Zn966       O970   1.956       .  S
Zn966       O971   1.996       .  S
Zn966       O975   2.080       .  S
Zn966       O982   2.087       .  S
Zn967       O970   1.971   1_445  S
Zn967       O972   2.099       .  S
Zn967       O974   2.020       .  S
Zn967       O978   2.083       .  S
Zn968       O970   1.924   1_545  S
Zn968       O973   1.969   1_545  S
Zn968       O976   1.926       .  S
Zn968       O979   1.996       .  S
Zn969       O970   1.917   1_455  S
Zn969       O977   1.989       .  S
Zn969       O980   1.961       .  S
Zn969       O981   1.976       .  S
O971        C983   1.270       .  A
O972        C984   1.285   1_455  A
O973        C985   1.269       .  A
O974        C983   1.274   1_445  A
O975        C985   1.281       .  A
O976        C984   1.262       .  A
O977        C986   1.270   1_455  A
O978        C987   1.281   1_545  A
O979        C986   1.266   1_545  A
O980        C987   1.264       .  A
O981        C988   1.272       .  A
O982        C988   1.283   1_655  A
C984       C1303   1.493       .  S
C985       C1340   1.477       .  S
C987       C1270   1.474       .  S
C988       C1453   1.489       .  S
N989        C993   1.357       .  A
N989        C990   1.355       .  A
N989       C1603   1.450       .  S
C990        C991   1.382       .  A
C990       C1260   1.471       .  S
C991        C992   1.365       .  A
C991        H994   1.083       .  S
C992        C993   1.383       .  A
C992        H995   1.082       .  S
C993       C1280   1.478       .  S
N996       C1000   1.361       .  A
N996        C997   1.364       .  A
N996       C1643   1.455       .  S
C997        C998   1.384       .  A
C997       C1273   1.488       .  S
C998        C999   1.364       .  A
C998       H1001   1.082       .  S
C999       C1000   1.380       .  A
C999       H1002   1.083       .  S
C1000      C1250   1.480       .  S
Zn1003     O1007   1.951       .  S
Zn1003     O1008   2.047   1_565  S
Zn1003     O1012   1.987       .  S
Zn1003     O1019   2.056       .  S
Zn1004     O1007   1.930   1_545  S
Zn1004     O1009   1.995       .  S
Zn1004     O1011   1.990       .  S
Zn1004     O1015   2.029       .  S
Zn1005     O1007   1.924   1_545  S
Zn1005     O1010   2.031   1_545  S
Zn1005     O1013   2.076       .  S
Zn1005     O1016   2.059       .  S
Zn1006     O1007   1.897       .  S
Zn1006     O1014   1.958       .  S
Zn1006     O1017   2.007       .  S
Zn1006     O1018   1.983       .  S
O1008      C1020   1.281       .  A
O1009      C1021   1.270       .  A
O1010      C1022   1.272       .  A
O1011      C1020   1.273       .  A
O1012      C1022   1.266       .  A
O1013      C1021   1.281       .  A
O1014      C1023   1.268       .  A
O1015      C1024   1.274   1_545  A
O1016      C1023   1.283   1_545  A
O1017      C1024   1.274       .  A
O1018      C1025   1.270       .  A
O1019      C1025   1.281       .  A
C1020      C1353   1.490       .  S
C1021      C1240   1.493       .  S
C1023      C1263   1.478       .  S
C1024      C1047   1.460       .  S
C1025      C1403   1.489       .  S
Zn1026     O1030   1.924       .  S
Zn1026     O1031   1.945       .  S
Zn1026     O1035   2.034       .  S
Zn1026     O1042   2.014       .  S
Zn1027     O1030   1.985   1_545  S
Zn1027     O1032   2.089       .  S
Zn1027     O1034   2.100   1_545  S
Zn1027     O1038   2.057       .  S
Zn1028     O1030   1.912   1_545  S
Zn1028     O1033   1.984   1_545  S
Zn1028     O1036   1.917       .  S
Zn1028     O1039   1.972       .  S
Zn1029     O1030   1.922       .  S
Zn1029     O1037   2.059       .  S
Zn1029     O1040   1.969       .  S
Zn1029     O1041   2.006       .  S
O1031      C1043   1.264       .  A
O1032      C1044   1.283       .  A
O1033      C1045   1.267   1_556  A
O1034      C1043   1.285       .  A
O1035      C1045   1.273   1_556  A
O1036      C1044   1.261       .  A
O1037      C1046   1.275   1_565  A
O1038      C1047   1.277   1_545  A
O1039      C1046   1.268       .  A
O1040      C1047   1.265       .  A
O1041      C1048   1.278       .  A
O1042      C1048   1.277       .  A
C1043      C1253   1.492       .  S
C1044      C1230   1.486       .  S
C1046      C1330   1.484       .  S
C1048      C1383   1.485       .  S
N1049      C1053   1.368       .  A
N1049      C1050   1.365       .  A
N1049      C1510   1.460       .  S
C1050      C1051   1.376       .  A
C1050      C1223   1.486       .  S
C1051      C1052   1.361       .  A
C1051      H1054   1.080       .  S
C1052      C1053   1.379       .  A
C1052      H1055   1.072       .  S
C1053      C1243   1.493       .  S
N1056      C1060   1.366       .  A
N1056      C1057   1.367       .  A
N1056      C1553   1.473       .  S
C1057      C1058   1.381   1_556  A
C1057      C1210   1.473       .  S
C1058      C1059   1.351       .  A
C1058      H1061   1.083       .  S
C1059      C1060   1.379   1_554  A
C1059      H1062   1.083       .  S
C1060      C1233   1.465       .  S
Zn1063     O1067   1.933   1_655  S
Zn1063     O1068   2.017       .  S
Zn1063     O1072   2.071       .  S
Zn1063     O1079   2.076       .  S
Zn1064     O1067   1.939       .  S
Zn1064     O1069   2.056       .  S
Zn1064     O1071   1.993       .  S
Zn1064     O1075   2.040       .  S
Zn1065     O1067   1.917   1_655  S
Zn1065     O1070   1.946       .  S
Zn1065     O1073   2.003       .  S
Zn1065     O1076   2.018       .  S
Zn1066     O1067   1.912       .  S
Zn1066     O1074   2.008       .  S
Zn1066     O1077   2.000       .  S
Zn1066     O1078   1.976       .  S
O1068      C1080   1.274   1_655  A
O1069      C1081   1.281       .  A
O1070      C1082   1.266       .  A
O1071      C1080   1.267       .  A
O1072      C1082   1.282       .  A
O1073      C1081   1.272   1_655  A
O1074      C1083   1.272   1_455  A
O1075      C1084   1.280       .  A
O1076      C1083   1.276       .  A
O1077      C1084   1.274       .  A
O1078      C1085   1.267       .  A
O1079      C1085   1.282   1_655  A
C1080      C1104   1.455       .  S
C1081      C1313   1.490       .  S
C1082      C1433   1.474       .  S
C1084      C1200   1.492       .  S
C1085      C1483   1.499       .  S
Zn1086     O1090   1.962   1_655  S
Zn1086     O1091   2.099       .  S
Zn1086     O1095   2.060       .  S
Zn1086     O1102   2.013       .  S
Zn1087     O1090   1.896   1_655  S
Zn1087     O1092   1.979       .  S
Zn1087     O1094   1.930       .  S
Zn1087     O1098   1.977       .  S
Zn1088     O1090   1.942       .  S
Zn1088     O1093   1.959       .  S
Zn1088     O1096   2.017       .  S
Zn1088     O1099   1.994       .  S
Zn1089     O1090   1.944       .  S
Zn1089     O1097   2.036       .  S
Zn1089     O1100   2.050       .  S
Zn1089     O1101   1.991       .  S
O1091      C1103   1.282       .  A
O1092      C1104   1.268   1_655  A
O1093      C1105   1.266       .  A
O1094      C1103   1.262       .  A
O1095      C1105   1.280   1_655  A
O1096      C1104   1.272       .  A
O1097      C1106   1.278       .  A
O1098      C1107   1.271       .  A
O1099      C1106   1.271       .  A
O1100      C1107   1.279   1_455  A
O1101      C1108   1.268   1_455  A
O1102      C1108   1.273       .  A
C1103      C1413   1.483       .  S
C1105      C1460   1.466       .  S
C1106      C1190   1.491       .  S
C1107      C1293   1.493       .  S
N1109      C1113   1.364       .  A
N1109      C1110   1.359       .  A
N1109      C1593   1.466       .  S
C1110      C1111   1.381       .  A
C1110      C1203   1.486       .  S
C1111      C1112   1.364       .  A
C1111      H1114   1.079       .  S
C1112      C1113   1.382       .  A
C1112      H1115   1.076       .  S
C1113      C1180   1.503       .  S
N1116      C1120   1.364       .  A
N1116      C1117   1.368       .  A
N1116      C1633   1.471       .  S
C1117      C1118   1.387       .  A
C1117      C1193   1.497       .  S
C1118      C1119   1.359       .  A
C1118      H1121   1.082   1_556  S
C1119      C1120   1.379       .  A
C1119      H1122   1.081   1_556  S
C1120      C1170   1.480       .  S
Zn1123     O1127   1.914       .  S
Zn1123     O1128   2.000       .  S
Zn1123     O1132   1.980       .  S
Zn1123     O1139   1.915       .  S
Zn1124     O1127   1.945       .  S
Zn1124     O1129   1.991       .  S
Zn1124     O1131   2.037       .  S
Zn1124     O1135   1.997       .  S
Zn1125     O1127   1.942       .  S
Zn1125     O1130   2.011       .  S
Zn1125     O1133   2.010       .  S
Zn1125     O1136   1.967       .  S
Zn1126     O1127   1.972       .  S
Zn1126     O1134   2.109       .  S
Zn1126     O1137   2.011       .  S
Zn1126     O1138   2.095       .  S
O1128      C1140   1.270       .  A
O1129      C1141   1.272       .  A
O1130      C1142   1.274       .  A
O1131      C1140   1.277       .  A
O1132      C1142   1.270       .  A
O1133      C1141   1.272       .  A
O1134      C1143   1.285       .  A
O1135      C1144   1.268       .  A
O1136      C1143   1.266       .  A
O1137      C1144   1.276       .  A
O1138      C1145   1.283       .  A
O1139      C1145   1.261       .  A
C1140      C1393   1.473       .  S
C1141      C1443   1.469       .  S
C1142      C1165   1.458       .  S
C1143      C1220   1.493       .  S
C1145      C1183   1.482       .  S
Zn1146     O1150   1.931       .  S
Zn1146     O1151   1.942       .  S
Zn1146     O1155   1.987       .  S
Zn1146     O1162   1.983       .  S
Zn1147     O1150   1.994       .  S
Zn1147     O1152   2.102       .  S
Zn1147     O1154   2.094       .  S
Zn1147     O1158   2.053       .  S
Zn1148     O1150   1.922       .  S
Zn1148     O1153   1.994       .  S
Zn1148     O1156   1.917       .  S
Zn1148     O1159   1.986       .  S
Zn1149     O1150   1.929       .  S
Zn1149     O1157   2.039       .  S
Zn1149     O1160   1.981       .  S
Zn1149     O1161   2.006       .  S
O1151      C1163   1.263       .  A
O1152      C1164   1.282       .  A
O1153      C1165   1.271       .  A
O1154      C1163   1.283       .  A
O1155      C1165   1.268       .  A
O1156      C1164   1.261       .  A
O1157      C1166   1.276       .  A
O1158      C1167   1.280   1_556  A
O1159      C1166   1.268       .  A
O1160      C1167   1.268   1_556  A
O1161      C1168   1.275       .  A
O1162      C1168   1.269       .  A
C1163      C1423   1.490       .  S
C1164      C1373   1.473       .  S
C1166      C1173   1.468       .  S
C1168      C1213   1.475       .  S
C1169      C1170   1.414       .  A
C1169      C1174   1.402       .  A
C1169      F1176   1.357       .  S
C1170      C1171   1.400       .  A
C1171      C1172   1.397       .  A
C1171      F1178   1.357       .  S
C1172      C1173   1.407       .  A
C1172      F1177   1.358       .  S
C1173      C1174   1.398       .  A
C1174      F1175   1.357       .  S
C1179      C1180   1.406       .  A
C1179      C1184   1.400       .  A
C1179      F1186   1.355       .  S
C1180      C1181   1.423       .  A
C1181      C1182   1.401       .  A
C1181      F1188   1.354       .  S
C1182      C1183   1.399       .  A
C1182      F1187   1.358       .  S
C1183      C1184   1.413       .  A
C1184      F1185   1.359       .  S
C1189      C1190   1.410       .  A
C1189      C1194   1.397       .  A
C1189      F1196   1.358       .  S
C1190      C1191   1.411       .  A
C1191      C1192   1.409       .  A
C1191      F1198   1.358       .  S
C1192      C1193   1.412       .  A
C1192      F1197   1.357       .  S
C1193      C1194   1.408       .  A
C1194      F1195   1.357       .  S
C1199      C1200   1.416       .  A
C1199      C1204   1.397       .  A
C1199      F1206   1.357       .  S
C1200      C1201   1.408       .  A
C1201      C1202   1.402       .  A
C1201      F1208   1.357       .  S
C1202      C1203   1.411       .  A
C1202      F1207   1.357       .  S
C1203      C1204   1.401       .  A
C1204      F1205   1.358       .  S
C1209      C1210   1.408       .  A
C1209      C1214   1.405       .  A
C1209      F1216   1.358       .  S
C1210      C1211   1.402       .  A
C1211      C1212   1.389       .  A
C1211      F1218   1.359   1_556  S
C1212      C1213   1.409       .  A
C1212      F1217   1.359       .  S
C1213      C1214   1.409       .  A
C1214      F1215   1.358       .  S
C1219      C1220   1.419       .  A
C1219      C1224   1.403       .  A
C1219      F1226   1.357       .  S
C1220      C1221   1.403       .  A
C1221      C1222   1.405       .  A
C1221      F1228   1.357       .  S
C1222      C1223   1.413       .  A
C1222      F1227   1.358       .  S
C1223      C1224   1.398       .  A
C1224      F1225   1.358       .  S
C1229      C1230   1.421       .  A
C1229      C1234   1.391       .  A
C1229      F1236   1.359       .  S
C1230      C1231   1.405       .  A
C1231      C1232   1.401       .  A
C1231      F1238   1.357       .  S
C1232      C1233   1.409       .  A
C1232      F1237   1.358       .  S
C1233      C1234   1.391       .  A
C1234      F1235   1.356   1_556  S
C1239      C1240   1.409       .  A
C1239      C1244   1.402       .  A
C1239      F1246   1.358       .  S
C1240      C1241   1.411       .  A
C1241      C1242   1.409       .  A
C1241      F1248   1.357       .  S
C1242      C1243   1.409       .  A
C1242      F1247   1.357       .  S
C1243      C1244   1.408       .  A
C1244      F1245   1.357       .  S
C1249      C1250   1.412       .  A
C1249      C1254   1.403       .  A
C1249      F1256   1.358       .  S
C1250      C1251   1.396       .  A
C1251      C1252   1.401       .  A
C1251      F1258   1.358       .  S
C1252      C1253   1.422       .  A
C1252      F1257   1.359       .  S
C1253      C1254   1.403       .  A
C1254      F1255   1.357   1_565  S
C1259      C1260   1.395       .  A
C1259      C1264   1.396       .  A
C1259      F1266   1.358       .  S
C1260      C1261   1.411       .  A
C1261      C1262   1.398       .  A
C1261      F1268   1.358       .  S
C1262      C1263   1.400       .  A
C1262      F1267   1.357   1_565  S
C1263      C1264   1.418       .  A
C1264      F1265   1.359       .  S
C1269      C1270   1.406       .  A
C1269      C1274   1.399       .  A
C1269      F1276   1.358       .  S
C1270      C1271   1.405       .  A
C1271      C1272   1.405       .  A
C1271      F1278   1.357       .  S
C1272      C1273   1.411       .  A
C1272      F1277   1.357       .  S
C1273      C1274   1.408       .  A
C1274      F1275   1.358       .  S
C1279      C1280   1.411       .  A
C1279      C1284   1.403       .  A
C1279      F1286   1.357       .  S
C1280      C1281   1.401       .  A
C1281      C1282   1.392       .  A
C1281      F1288   1.359       .  S
C1282      C1283   1.412       .  A
C1282      F1287   1.358       .  S
C1283      C1284   1.405       .  A
C1284      F1285   1.358       .  S
C1289      C1290   1.401       .  A
C1289      C1294   1.394       .  A
C1289      F1296   1.358       .  S
C1290      C1291   1.408       .  A
C1291      C1292   1.405       .  A
C1291      F1298   1.357       .  S
C1292      C1293   1.411       .  A
C1292      F1297   1.357       .  S
C1293      C1294   1.417       .  A
C1294      F1295   1.358       .  S
C1299      C1300   1.393       .  A
C1299      C1304   1.397       .  A
C1299      F1306   1.357       .  S
C1300      C1301   1.413       .  A
C1301      C1302   1.401       .  A
C1301      F1308   1.358       .  S
C1302      C1303   1.404       .  A
C1302      F1307   1.357   1_655  S
C1303      C1304   1.424       .  A
C1304      F1305   1.358       .  S
C1309      C1310   1.409       .  A
C1309      C1314   1.408       .  A
C1309      F1316   1.355       .  S
C1310      C1311   1.410       .  A
C1311      C1312   1.399   1_655  A
C1311      F1318   1.358       .  S
C1312      C1313   1.408       .  A
C1312      F1317   1.358       .  S
C1313      C1314   1.411   1_455  A
C1314      F1315   1.357       .  S
C1319      C1320   1.406       .  A
C1319      C1324   1.395       .  A
C1319      F1326   1.358       .  S
C1320      C1321   1.411       .  A
C1321      C1322   1.405       .  A
C1321      F1328   1.355       .  S
C1322      C1323   1.406       .  A
C1322      F1327   1.357       .  S
C1323      C1324   1.409       .  A
C1324      F1325   1.359       .  S
C1329      C1330   1.411       .  A
C1329      C1334   1.393       .  A
C1329      F1336   1.356       .  S
C1330      C1331   1.404       .  A
C1331      C1332   1.409       .  A
C1331      F1338   1.357   1_545  S
C1332      C1333   1.416       .  A
C1332      F1337   1.357       .  S
C1333      C1334   1.401       .  A
C1334      F1335   1.359       .  S
C1339      C1340   1.413   1_545  A
C1339      C1344   1.408       .  A
C1339      F1346   1.358       .  S
C1340      C1341   1.400       .  A
C1341      C1342   1.400   1_565  A
C1341      F1348   1.357       .  S
C1342      C1343   1.415       .  A
C1342      F1347   1.358       .  S
C1343      C1344   1.404       .  A
C1344      F1345   1.357       .  S
C1349      C1350   1.398       .  A
C1349      C1354   1.396       .  A
C1349      F1356   1.358       .  S
C1350      C1351   1.410       .  A
C1351      C1352   1.402       .  A
C1351      F1358   1.356       .  S
C1352      C1353   1.407       .  A
C1352      F1357   1.358       .  S
C1353      C1354   1.417       .  A
C1354      F1355   1.357       .  S
C1359      C1360   1.403       .  A
C1359      C1364   1.397       .  A
C1359      F1366   1.359       .  S
C1360      C1361   1.408       .  A
C1361      C1362   1.412       .  A
C1361      F1368   1.357       .  S
C1362      C1363   1.414       .  A
C1362      F1367   1.357       .  S
C1363      C1364   1.412       .  A
C1364      F1365   1.358       .  S
C1369      C1370   1.412       .  A
C1369      C1374   1.412       .  A
C1369      F1376   1.356       .  S
C1370      C1371   1.404       .  A
C1371      C1372   1.389       .  A
C1371      F1378   1.359       .  S
C1372      C1373   1.405       .  A
C1372      F1377   1.359       .  S
C1373      C1374   1.406       .  A
C1374      F1375   1.357       .  S
C1379      C1380   1.403       .  A
C1379      C1384   1.393       .  A
C1379      F1386   1.359       .  S
C1380      C1381   1.411       .  A
C1381      C1382   1.406       .  A
C1381      F1388   1.357       .  S
C1382      C1383   1.409       .  A
C1382      F1387   1.357       .  S
C1383      C1384   1.412       .  A
C1384      F1385   1.359       .  S
C1389      C1390   1.400       .  A
C1389      C1394   1.402       .  A
C1389      F1396   1.358       .  S
C1390      C1391   1.414       .  A
C1391      C1392   1.400       .  A
C1391      F1398   1.358       .  S
C1392      C1393   1.398       .  A
C1392      F1397   1.357       .  S
C1393      C1394   1.411       .  A
C1394      F1395   1.358       .  S
C1399      C1400   1.408       .  A
C1399      C1404   1.405       .  A
C1399      F1406   1.357       .  S
C1400      C1401   1.412       .  A
C1401      C1402   1.401       .  A
C1401      F1408   1.358       .  S
C1402      C1403   1.408       .  A
C1402      F1407   1.358       .  S
C1403      C1404   1.411       .  A
C1404      F1405   1.358       .  S
C1409      C1410   1.411       .  A
C1409      C1414   1.408       .  A
C1409      F1416   1.357       .  S
C1410      C1411   1.402       .  A
C1411      C1412   1.394       .  A
C1411      F1418   1.359       .  S
C1412      C1413   1.411       .  A
C1412      F1417   1.359       .  S
C1413      C1414   1.407       .  A
C1414      F1415   1.357       .  S
C1419      C1420   1.398       .  A
C1419      C1424   1.401       .  A
C1419      F1426   1.357       .  S
C1420      C1421   1.414       .  A
C1421      C1422   1.400       .  A
C1421      F1428   1.358       .  S
C1422      C1423   1.402       .  A
C1422      F1427   1.357       .  S
C1423      C1424   1.419       .  A
C1424      F1425   1.359       .  S
C1429      C1430   1.398       .  A
C1429      C1434   1.393       .  A
C1429      F1436   1.358       .  S
C1430      C1431   1.409       .  A
C1431      C1432   1.403       .  A
C1431      F1438   1.357       .  S
C1432      C1433   1.405       .  A
C1432      F1437   1.358       .  S
C1433      C1434   1.410       .  A
C1434      F1435   1.358       .  S
C1439      C1440   1.398       .  A
C1439      C1444   1.394       .  A
C1439      F1446   1.358       .  S
C1440      C1441   1.413       .  A
C1441      C1442   1.403       .  A
C1441      F1448   1.357       .  S
C1442      C1443   1.399       .  A
C1442      F1447   1.357       .  S
C1443      C1444   1.409       .  A
C1444      F1445   1.359       .  S
C1449      C1450   1.414       .  A
C1449      C1454   1.409       .  A
C1449      F1456   1.356       .  S
C1450      C1451   1.397       .  A
C1451      C1452   1.397       .  A
C1451      F1458   1.358       .  S
C1452      C1453   1.414       .  A
C1452      F1457   1.357       .  S
C1453      C1454   1.404       .  A
C1454      F1455   1.357   1_455  S
C1459      C1460   1.400       .  A
C1459      C1464   1.404       .  A
C1459      F1466   1.357       .  S
C1460      C1461   1.405       .  A
C1461      C1462   1.395       .  A
C1461      F1468   1.359       .  S
C1462      C1463   1.404       .  A
C1462      F1467   1.358       .  S
C1463      C1464   1.411       .  A
C1464      F1465   1.356       .  S
C1469      C1470   1.410       .  A
C1469      C1474   1.399       .  A
C1469      F1476   1.359       .  S
C1470      C1471   1.405       .  A
C1471      C1472   1.409       .  A
C1471      F1478   1.357   1_455  S
C1472      C1473   1.412       .  A
C1472      F1477   1.357       .  S
C1473      C1474   1.404       .  A
C1474      F1475   1.359       .  S
C1479      C1480   1.408       .  A
C1479      C1484   1.405       .  A
C1479      F1486   1.355       .  S
C1480      C1481   1.424       .  A
C1481      C1482   1.401       .  A
C1481      F1488   1.356       .  S
C1482      C1483   1.401       .  A
C1482      F1487   1.358   1_455  S
C1483      C1484   1.418       .  A
C1484      F1485   1.358       .  S
C1489      C1490   1.419       .  A
C1489      C1494   1.398       .  A
C1489      F1496   1.356       .  S
C1490      C1491   1.417       .  A
C1491      C1492   1.418       .  A
C1491      F1498   1.357       .  S
C1492      C1493   1.411       .  A
C1492      F1497   1.357       .  S
C1493      C1494   1.409       .  A
C1494      F1495   1.353       .  S
C1499      C1500   1.408       .  A
C1499      C1504   1.407       .  A
C1499      F1506   1.357       .  S
C1500      C1501   1.415       .  A
C1501      C1502   1.414       .  A
C1501      F1508   1.353       .  S
C1502      C1503   1.405       .  A
C1502      F1507   1.356       .  S
C1503      C1504   1.414       .  A
C1504      F1505   1.357       .  S
C1509      C1510   1.416       .  A
C1509      C1514   1.406       .  A
C1509      F1516   1.357       .  S
C1510      C1511   1.406       .  A
C1511      C1512   1.413       .  A
C1511      F1518   1.357       .  S
C1512      C1513   1.418       .  A
C1512      F1517   1.355       .  S
C1513      C1514   1.413       .  A
C1514      F1515   1.357       .  S
C1519      C1520   1.409       .  A
C1519      C1524   1.407       .  A
C1519      F1526   1.358       .  S
C1520      C1521   1.413       .  A
C1521      C1522   1.406       .  A
C1521      F1528   1.356       .  S
C1522      C1523   1.421       .  A
C1522      F1527   1.353       .  S
C1523      C1524   1.422       .  A
C1524      F1525   1.351       .  S
C1529      C1530   1.420       .  A
C1529      C1534   1.407       .  A
C1529      F1536   1.356       .  S
C1530      C1531   1.420       .  A
C1531      C1532   1.410       .  A
C1531      F1538   1.355       .  S
C1532      C1533   1.404       .  A
C1532      F1537   1.358       .  S
C1533      C1534   1.406       .  A
C1534      F1535   1.358       .  S
C1539      C1540   1.410       .  A
C1539      C1544   1.416       .  A
C1539      F1546   1.357       .  S
C1540      C1541   1.407       .  A
C1541      C1542   1.402       .  A
C1542      C1543   1.411       .  A
C1542      F1547   1.358       .  S
C1543      C1544   1.408       .  A
C1544      F1545   1.356       .  S
C1549      C1550   1.407       .  A
C1549      C1554   1.406       .  A
C1549      F1556   1.356   1_556  S
C1550      C1551   1.411       .  A
C1551      C1552   1.415       .  A
C1551      F1558   1.357       .  S
C1552      C1553   1.417       .  A
C1552      F1557   1.355       .  S
C1553      C1554   1.419       .  A
C1554      F1555   1.355   1_556  S
C1559      C1560   1.416       .  A
C1559      C1564   1.406       .  A
C1559      F1566   1.353       .  S
C1560      C1561   1.425       .  A
C1561      C1562   1.414       .  A
C1562      C1563   1.403       .  A
C1562      F1567   1.357       .  S
C1563      C1564   1.410       .  A
C1564      F1565   1.356       .  S
C1569      C1570   1.417       .  A
C1569      C1574   1.413       .  A
C1569      F1576   1.354       .  S
C1570      C1571   1.422       .  A
C1571      C1572   1.409       .  A
C1571      F1578   1.355       .  S
C1572      C1573   1.405       .  A
C1572      F1577   1.355       .  S
C1573      C1574   1.409       .  A
C1574      F1575   1.358       .  S
C1579      C1580   1.406       .  A
C1579      C1584   1.409       .  A
C1579      F1586   1.357       .  S
C1580      C1581   1.419       .  A
C1581      C1582   1.408       .  A
C1581      F1588   1.357       .  S
C1582      C1583   1.401       .  A
C1582      F1587   1.357       .  S
C1583      C1584   1.416       .  A
C1584      F1585   1.357       .  S
C1589      C1590   1.405       .  A
C1589      C1594   1.411       .  A
C1589      F1596   1.358       .  S
C1590      C1591   1.404       .  A
C1591      C1592   1.402       .  A
C1591      F1598   1.358       .  S
C1592      C1593   1.421       .  A
C1592      F1597   1.357       .  S
C1593      C1594   1.415       .  A
C1594      F1595   1.356       .  S
C1599      C1600   1.418       .  A
C1599      C1604   1.398       .  A
C1599      F1606   1.357       .  S
C1600      C1601   1.419       .  A
C1601      C1602   1.410       .  A
C1601      F1608   1.357       .  S
C1602      C1603   1.404       .  A
C1602      F1607   1.357       .  S
C1603      C1604   1.407       .  A
C1604      F1605   1.358       .  S
C1609      C1610   1.418       .  A
C1609      C1614   1.400       .  A
C1610      C1611   1.423       .  A
C1611      C1612   1.420       .  A
C1611      F1618   1.352       .  S
C1612      C1613   1.408       .  A
C1612      F1617   1.357       .  S
C1613      C1614   1.408       .  A
C1614      F1615   1.357       .  S
C1619      C1620   1.410       .  A
C1619      C1624   1.413       .  A
C1619      F1626   1.356       .  S
C1620      C1621   1.419       .  A
C1621      C1622   1.407       .  A
C1621      F1628   1.357       .  S
C1622      C1623   1.410       .  A
C1622      F1627   1.358       .  S
C1623      C1624   1.413       .  A
C1629      C1630   1.411       .  A
C1629      C1634   1.410       .  A
C1629      F1636   1.358       .  S
C1630      C1631   1.409       .  A
C1631      C1632   1.412       .  A
C1631      F1638   1.356       .  S
C1632      C1633   1.421       .  A
C1632      F1637   1.356       .  S
C1633      C1634   1.412       .  A
C1634      F1635   1.355       .  S
C1639      C1640   1.405       .  A
C1639      C1644   1.410       .  A
C1639      F1646   1.357       .  S
C1640      C1641   1.415       .  A
C1641      C1642   1.409       .  A
C1642      C1643   1.404       .  A
C1642      F1647   1.357       .  S
C1643      C1644   1.415       .  A
C1644      F1645   1.357       .  S
