geometry optimzed in LAMMPS
_audit_creation_date              2020-11-30 
_audit_creation_method            'lammps2cif' 
_symmetry_space_group_name_H-M    'P1' 
_symmetry_Int_Tables_number       1 
_symmetry_cell_setting            triclinic 
loop_ 
_symmetry_equiv_pos_as_xyz 
  x,y,z 
_cell_length_a                    36.51164897 
_cell_length_b                    34.06965874332472 
_cell_length_c                    35.37812318451597 
_cell_angle_alpha                 89.29551051851149 
_cell_angle_beta                  90.43783648982794 
_cell_angle_gamma                 90.36617472556323 
loop_ 
_atom_site_label 
_atom_site_type_symbol 
_atom_site_fract_x 
_atom_site_fract_y 
_atom_site_fract_z 
_atom_site_charge 
C1          C  0.46981671  0.22755590  0.49612785     0.80600
N2          N  0.48473586  0.19387374  0.50840806    -0.77700
C3          C  0.46696510  0.16967422  0.03302007     0.83000
N4          N  0.43265376  0.17967228  0.04578354    -0.77700
C5          C  0.41787705  0.21469770  0.03339549     0.83100
N6          N  0.43693338  0.23768259  0.50892874    -0.79400
C7          C  0.43167269  0.18404107  0.21535238     0.80600
N8          N  0.44986343  0.15553933  0.23429535    -0.77700
C9          C  0.44008166  0.14364931  0.26949954     0.83000
N10         N  0.41079191  0.16090072  0.28702659    -0.77700
C11         C  0.39203792  0.19000114  0.26789091     0.83100
N12         N  0.40318261  0.20106498  0.23270052    -0.79400
C13         C  0.39279982  0.45612922  0.46692323     0.80600
N14         N  0.37191558  0.42853508  0.48434545    -0.77700
C15         C  0.37981794  0.41531749  0.51982836     0.83000
N16         N  0.40984619  0.42980858  0.53863958    -0.77700
C17         C  0.43095259  0.45782166  0.52102001     0.83100
N18         N  0.42216582  0.47037592  0.48569023    -0.79400
C19         C  0.36241253  0.47138672  0.25856722     0.80600
N20         N  0.34583919  0.43931465  0.27321840    -0.77700
C21         C  0.36468921  0.41396555  0.29574825     0.83000
N22         N  0.40115227  0.42075962  0.30354099    -0.77700
C23         C  0.41719992  0.45434760  0.28955978     0.83100
N24         N  0.39759814  0.47879742  0.26699103    -0.79400
O25         O  0.49429212  0.46624960  0.52291249    -0.78200
C26         C  0.04173574  0.04583329  0.43943075     0.82900
O27         O  0.12268809  0.48287026  0.06087801    -0.79300
O28         O  0.10724680  0.11226382  0.52213157    -0.80800
O29         O  0.47427432  0.10509733  0.06299801    -0.80500
O30         O  0.46059766  0.00672350  0.05728142    -0.79200
Zn31       Zn  0.04002861  0.99761787  0.51264932     1.55700
O32         O  0.01647148  0.12889601  0.52380114    -0.80600
Cd33       Cd  0.49920598  0.04928684  0.07365130     1.59700
Cd34       Cd  0.09138444  0.03241795  0.07780025     1.59600
O35         O  0.01289792  0.04140302  0.13022572    -0.80600
O36         O  0.04637690  0.04179648  0.54488612    -1.91100
Cd37       Cd  0.05563963  0.08890952  0.51297193     1.59900
O38         O  0.07312171  0.02805075  0.13316999    -0.80500
O39         O  0.05045049  0.07767580  0.45569298    -0.79200
C40         C  0.11477583  0.46124578  0.53262982     0.83400
C41         C  0.46386881  0.47593543  0.53729353     0.83000
O42         O  0.03627114  0.01426705  0.45815078    -0.78100
C43         C  0.48640072  0.13238163  0.54136822     0.83800
O44         O  0.08450444  0.46516326  0.51503264    -0.78200
C45         C  0.04210263  0.03326605  0.14887536     0.83600
C46         C  0.13239709  0.10510197  0.54632432     0.84300
O47         O  0.12889373  0.07888300  0.07213289    -0.80600
O48         O  0.06401313  0.44560896  0.31961175    -0.78200
C49         C  0.03832236  0.04470294  0.39804494     0.82900
O50         O  0.46970836  0.98023328  0.26348194    -0.79300
O51         O  0.99264195  0.12078507  0.30369299    -0.80800
O52         O  0.11466936  0.06924408  0.26981484    -0.80500
O53         O  0.10694586  0.47311898  0.28321722    -0.79200
Zn54       Zn  0.02650915  0.98937108  0.33062801     1.55700
O55         O  0.08929095  0.11768903  0.30210044    -0.80600
Cd56       Cd  0.07987665  0.02325297  0.26663225     1.59700
Cd57       Cd  0.49437618  0.03375223  0.26118789     1.59600
O58         O  0.06779571  0.01993044  0.20933842    -0.80600
O59         O  0.03580089  0.03392843  0.29665998    -1.91100
Cd60       Cd  0.03986659  0.08759244  0.32017674     1.59900
O61         O  0.01019332  0.04038417  0.20603067    -0.80500
O62         O  0.04138523  0.07654351  0.37858241    -0.79200
C63         C  0.45606537  0.46527336  0.29318332     0.83400
C64         C  0.09432113  0.44389588  0.30165355     0.83000
O65         O  0.03273257  0.01125006  0.38295319    -0.78100
C66         C  0.11531460  0.10416915  0.28188985     0.83800
O67         O  0.47312082  0.46727351  0.32475086    -0.78200
C68         C  0.03989922  0.03081531  0.19022860     0.84000
C69         C  0.46306731  0.11203674  0.28562892     0.84300
O70         O  0.45749771  0.07792169  0.27231307    -0.80600
C71         C  0.14909067  0.39352116  0.46165167     0.80600
N72         N  0.13077297  0.42133620  0.48031630    -0.77700
C73         C  0.14019865  0.43261851  0.51574940     0.83000
N74         N  0.16953167  0.41522062  0.53372625    -0.77700
C75         C  0.18840197  0.38665908  0.51493003     0.83100
N76         N  0.17752766  0.37618224  0.47955045    -0.79400
C77         C  0.10525860  0.34849763  0.25842913     0.80600
N78         N  0.09046142  0.38115168  0.27283825    -0.77700
C79         C  0.11085752  0.40556029  0.29465053     0.83000
N80         N  0.14718936  0.39732948  0.30176101    -0.77700
C81         C  0.16159644  0.36343315  0.28774886     0.83100
N82         N  0.14032933  0.33994698  0.26606521    -0.79400
C83         C  0.22148331  0.10867248  0.50098429     0.80600
N84         N  0.18782965  0.09777830  0.51246944    -0.77700
C85         C  0.16925535  0.11946082  0.53757271     0.83000
N86         N  0.18439979  0.15342127  0.55117386    -0.77700
C87         C  0.21921591  0.16369440  0.54039600     0.83100
N88         N  0.23723671  0.14130723  0.51523800    -0.79400
C89         C  0.18863036  0.13249189  0.21637175     0.80600
N90         N  0.15846415  0.11655692  0.23233307    -0.77700
C91         C  0.14617654  0.12800520  0.26673549     0.83000
N92         N  0.16531811  0.15610108  0.28639422    -0.77700
C93         C  0.19640552  0.17174893  0.27032585     0.83100
N94         N  0.20721810  0.15981622  0.23592052    -0.79400
O95         O  0.26163711  0.27198500  0.46103389    -0.78200
C96         C  0.23677343  0.20124951  0.54989792     0.82900
O97         O  0.24138425  0.37416077  0.05584480    -0.79300
O98         O  0.30137137  0.26513243  0.13382703    -0.80800
O99         O  0.37184202  0.25789242  0.51933312    -0.80500
O100        O  0.31886808  0.29290825  0.45427407    -0.79200
Zn101      Zn  0.25114959  0.28056336  0.51686699     1.55700
O102        O  0.36029556  0.21992792  0.06904046    -0.80600
Cd103      Cd  0.33433775  0.29869016  0.50915626     1.59700
Cd104      Cd  0.29060126  0.34453924  0.07304469     1.59600
O105        O  0.36035724  0.35121757  0.51226521    -0.80600
O106        O  0.29492271  0.29226337  0.54569979    -1.91100
Cd107      Cd  0.30699200  0.24495818  0.07866517     1.59900
O108        O  0.33486817  0.38355652  0.05950824    -0.80500
O109        O  0.26818496  0.20088380  0.06633821    -0.79200
C110        C  0.21767709  0.36181952  0.53168694     0.83400
C111        C  0.28901111  0.28053002  0.44038826     0.83000
O112        O  0.22369797  0.23233063  0.53495640    -0.78100
C113        C  0.38095159  0.23025224  0.54165920     0.83800
O114        O  0.21983640  0.32769853  0.51765942    -0.78200
C115        C  0.35828408  0.38122373  0.53289699     0.84000
C116        C  0.29532807  0.29820809  0.14945877     0.84300
O117        O  0.29090944  0.33032524  0.13079826    -0.80600
O118        O  0.20917441  0.32454468  0.26834060    -0.78200
C119        C  0.29260006  0.29857654  0.19075387     0.82900
O120        O  0.24242345  0.19858092  0.31149694    -0.79300
O121        O  0.36251446  0.24987829  0.27015252    -0.80800
O122        O  0.31385841  0.37705117  0.31731263    -0.80500
O123        O  0.22079364  0.35826186  0.32019135    -0.79200
Zn124      Zn  0.24588883  0.28442968  0.25944811     1.55700
O125        O  0.35944367  0.34580628  0.28896036    -0.80600
Cd126      Cd  0.27413216  0.33369079  0.32835270     1.59700
Cd127      Cd  0.28902386  0.23433046  0.32385284     1.59600
O128        O  0.27978787  0.31315301  0.38303069    -0.80600
O129        O  0.28443494  0.28694493  0.29584150    -1.91100
Cd130      Cd  0.33044966  0.29830636  0.26829270     1.59900
O131        O  0.28966738  0.24792331  0.38152123    -0.80500
O132        O  0.32056693  0.30746129  0.21070299    -0.79200
C133        C  0.21845986  0.20409585  0.28539395     0.83400
C134        C  0.19974490  0.34969518  0.29247139     0.83000
O135        O  0.26258514  0.28797225  0.20570164    -0.78100
C136        C  0.34609445  0.37651630  0.30334251     0.83800
O137        O  0.21848249  0.23489476  0.26495595    -0.78200
C138        C  0.28552454  0.28009288  0.39935407     0.84000
C139        C  0.36288441  0.21523098  0.28392829     0.84300
O140        O  0.33777202  0.20309774  0.30657557    -0.80600
C141        C  0.31398705  0.01363587  0.17259666    -0.05100
C142        C  0.29967975  0.04832710  0.18788624     0.09000
C143        C  0.31066312  0.06009961  0.22466199    -0.02500
C144        C  0.33243929  0.03522906  0.24716422    -0.00800
C145        C  0.34259484  0.49839983  0.23343519    -0.04400
C146        C  0.33485389  0.48816448  0.19568702     0.02600
C147        C  0.26779768  0.06822319  0.16964181     0.09500
C148        C  0.29837650  0.09688380  0.24035755     0.35400
C149        C  0.34811714  0.45141892  0.18084651     0.38800
C150        C  0.23306975  0.04998147  0.17252773    -0.04700
C151        C  0.20202452  0.07337304  0.17776905     0.02400
C152        C  0.20679003  0.11398491  0.18340142    -0.04300
C153        C  0.23859479  0.13196413  0.16821576    -0.00600
C154        C  0.26958209  0.10873288  0.16133776    -0.03100
C155        C  0.22972850  0.00758002  0.17523402     0.36100
C156        C  0.24069822  0.17426284  0.16410994     0.39700
C157        C  0.16632228  0.05519286  0.18098529     0.38900
C158        C  0.30434900  0.12672444  0.15147659     0.35800
C159        C  0.30624184  0.00376163  0.13357414     0.36500
C160        C  0.34336558  0.04668061  0.28508396     0.39700
N161        N  0.13795552  0.04017301  0.18321026    -0.38300
N162        N  0.22694423  0.47376222  0.17735389    -0.39900
N163        N  0.24222739  0.20807413  0.16101676    -0.37700
N164        N  0.33216024  0.14106041  0.14372457    -0.40100
N165        N  0.28915285  0.12630848  0.25310428    -0.39800
N166        N  0.35258754  0.05527111  0.31525408    -0.37500
N167        N  0.35874185  0.42212143  0.16901422    -0.38500
N168        N  0.30008823  0.49586284  0.10241281    -0.40200
C169        C  0.27363372  0.02425458  0.96043655    -0.05100
C170        C  0.28783364  0.04149976  0.42679806     0.09000
C171        C  0.27492482  0.07863638  0.41473171    -0.02500
C172        C  0.25224689  0.10048909  0.43861257    -0.00800
C173        C  0.24118552  0.08450175  0.47372730    -0.04400
C174        C  0.24999649  0.04557207  0.98346841     0.02600
C175        C  0.32128197  0.02409544  0.40975400     0.09500
C176        C  0.28626182  0.09516961  0.37868044     0.35400
C177        C  0.23667798  0.02818382  0.01856285     0.38800
C178        C  0.32067489  0.48438117  0.39903359    -0.04700
C179        C  0.34943250  0.45980669  0.41143939     0.02400
C180        C  0.37894547  0.47638647  0.43202112    -0.04300
C181        C  0.38528545  0.01714853  0.42776602    -0.00600
C182        C  0.35550291  0.04147795  0.41858089    -0.03100
C183        C  0.28795336  0.46803185  0.38180976     0.36100
C184        C  0.42056662  0.03446864  0.43704586     0.39700
C185        C  0.34657486  0.41763546  0.40728890     0.38900
C186        C  0.35887249  0.08349346  0.42388149     0.35800
C187        C  0.28475687  0.98541886  0.97321384     0.36500
C188        C  0.24063954  0.13960679  0.42735085     0.39700
N189        N  0.34420735  0.38392805  0.40425226    -0.38300
N190        N  0.26183866  0.45492860  0.36801902    -0.39900
N191        N  0.44865540  0.04849094  0.44434733    -0.37700
N192        N  0.36178989  0.11698481  0.42825251    -0.40100
N193        N  0.29519065  0.10904630  0.35016191    -0.39800
N194        N  0.23135185  0.17082081  0.41845923    -0.37500
N195        N  0.22603912  0.01423653  0.04641900    -0.38500
N196        N  0.29280754  0.95441620  0.98396641    -0.40200
C197        C  0.97263784  0.26914030  0.17182999    -0.05100
C198        C  0.00822143  0.25326091  0.16968826     0.09000
C199        C  0.01180013  0.21313864  0.16097673    -0.02500
C200        C  0.48170125  0.18780553  0.16719975    -0.00800
C201        C  0.44898472  0.20327211  0.18158885    -0.04400
C202        C  0.44255758  0.24342976  0.17497585     0.02600
C203        C  0.03920259  0.27449357  0.18829713     0.09500
C204        C  0.04729153  0.19756277  0.15129949     0.35400
C205        C  0.40561742  0.25807272  0.17332658     0.38800
C206        C  0.05224419  0.26072864  0.22393375    -0.04700
C207        C  0.07665251  0.28381011  0.24508491     0.02400
C208        C  0.08401849  0.32266360  0.23348403    -0.04300
C209        C  0.07253203  0.33596168  0.19744119    -0.00600
C210        C  0.05197896  0.31087473  0.17397035    -0.03100
C211        C  0.03913981  0.22395646  0.24020869     0.36100
C212        C  0.08233411  0.37513571  0.18431440     0.39700
C213        C  0.09411503  0.26767289  0.27881623     0.38900
C214        C  0.04450650  0.32235838  0.13517157     0.35800
C215        C  0.96716818  0.31097092  0.17592649     0.36500
C216        C  0.48496414  0.14600099  0.16224412     0.39700
N217        N  0.10886756  0.25471914  0.30517672    -0.38300
N218        N  0.02876163  0.19479559  0.25353544    -0.39900
N219        N  0.08996361  0.40645358  0.17391019    -0.37700
N220        N  0.53976252  0.33210582  0.10410812    -0.40100
N221        N  0.07566453  0.18509343  0.14366751    -0.39800
N222        N  0.48688824  0.11247018  0.15833846    -0.37500
N223        N  0.37601141  0.26958665  0.17096545    -0.38500
N224        N  0.96267832  0.34432369  0.17942801    -0.40200
C225        C  0.10621825  0.31013138  0.91817100    -0.05100
C226        C  0.07091078  0.32680244  0.41563405     0.09000
C227        C  0.06804707  0.36732224  0.40745359    -0.02500
C228        C  0.09895147  0.39164518  0.41311861    -0.00800
C229        C  0.13140462  0.37503139  0.42790281    -0.04400
C230        C  0.13696501  0.33487518  0.92196257     0.02600
C231        C  0.03933225  0.30515744  0.43268198     0.09500
C232        C  0.03282846  0.38399559  0.39758745     0.35400
C233        C  0.17352022  0.31905663  0.92143642     0.38800
C234        C  0.52835389  0.31511627  0.96981022    -0.04700
C235        C  0.50341368  0.29089370  0.98928248     0.02400
C236        C  0.49106910  0.25547368  0.47285169    -0.04300
C237        C  0.99989452  0.24699754  0.43511788    -0.00600
C238        C  0.02342801  0.27237277  0.41474134    -0.03100
C239        C  0.54388058  0.34894508  0.98883397     0.36100
C240        C  0.98423071  0.21266367  0.41714943     0.39700
C241        C  0.49068547  0.30164100  0.02651479     0.38900
C242        C  0.03117346  0.26480004  0.37547205     0.35800
C243        C  0.11052208  0.26794356  0.92108364     0.36500
C244        C  0.09706209  0.43363344  0.40709788     0.39700
N245        N  0.47936169  0.30968409  0.05585685    -0.38300
N246        N  0.55606923  0.37581524  0.00430017    -0.39900
N247        N  0.97158569  0.18542762  0.40265896    -0.37700
N248        N  0.03657897  0.25854157  0.34396687    -0.40100
N249        N  0.00464507  0.39718161  0.38958455    -0.39800
N250        N  0.09664777  0.46725709  0.40226718    -0.37500
N251        N  0.20278325  0.30650507  0.92001661    -0.38500
N252        N  0.11408572  0.23427345  0.92348635    -0.40200
C253        C  0.46995261  0.22773635  0.99625938     0.80600
N254        N  0.48485305  0.19402824  0.00850223    -0.77700
C255        C  0.46687901  0.16955475  0.53298165     0.83000
N256        N  0.43258225  0.17956879  0.54577562    -0.77700
C257        C  0.41778959  0.21457441  0.53335331     0.83100
N258        N  0.43705089  0.23784403  0.00902983    -0.79400
C259        C  0.43162036  0.18402485  0.71529878     0.80600
N260        N  0.44983011  0.15554166  0.73424982    -0.77700
C261        C  0.44006625  0.14366985  0.76946623     0.83000
N262        N  0.41077955  0.16092363  0.78699670    -0.77700
C263        C  0.39200714  0.19000351  0.76785158     0.83100
N264        N  0.40313011  0.20104499  0.73264890    -0.79400
C265        C  0.39281917  0.45617063  0.96686092     0.80600
N266        N  0.37193037  0.42856915  0.98426958    -0.77700
C267        C  0.37980272  0.41537203  0.01976870     0.83000
N268        N  0.40980484  0.42988952  0.03860635    -0.77700
C269        C  0.43091637  0.45790717  0.02099992     0.83100
N270        N  0.42215807  0.47044169  0.98565697    -0.79400
C271        C  0.36240616  0.47145977  0.75866093     0.80600
N272        N  0.34584925  0.43935444  0.77326179    -0.77700
C273        C  0.36471024  0.41397618  0.79574842     0.83000
N274        N  0.40117538  0.42076581  0.80353527    -0.77700
C275        C  0.41720859  0.45438483  0.78960322     0.83100
N276        N  0.39759274  0.47886761  0.76708162    -0.79400
O277        O  0.49426276  0.46629366  0.02294276    -0.78200
C278        C  0.04175065  0.04583040  0.93943291     0.82900
O279        O  0.12268761  0.48280694  0.56084414    -0.79300
O280        O  0.10728699  0.11225846  0.02209945    -0.80800
O281        O  0.47422786  0.10499963  0.56299678    -0.80500
O282        O  0.46062975  0.00662194  0.55731526    -0.79200
Zn283      Zn  0.04002441  0.99763500  0.01267331     1.55700
O284        O  0.01651867  0.12896637  0.02378603    -0.80600
Cd285      Cd  0.49921009  0.04921813  0.57365793     1.59700
Cd286      Cd  0.09139016  0.03235712  0.57778895     1.59600
O287        O  0.01291320  0.04136513  0.63022652    -0.80600
O288        O  0.04637470  0.04183885  0.04488679    -1.91100
Cd289      Cd  0.05565831  0.08893817  0.01295808     1.59900
O290        O  0.07313449  0.02799591  0.63316801    -0.80500
O291        O  0.05045575  0.07767898  0.95568900    -0.79200
C292        C  0.11478254  0.46128172  0.03268231     0.83400
C293        C  0.46383205  0.47601611  0.03728692     0.83000
O294        O  0.03628854  0.01426578  0.95815913    -0.78100
C295        C  0.48645844  0.13247419  0.04136896     0.83800
O296        O  0.08450682  0.46516960  0.01508333    -0.78200
C297        C  0.04211703  0.03322542  0.64887476     0.83600
C298        C  0.13242100  0.10512746  0.04631967     0.84300
O299        O  0.12889403  0.07882093  0.57210675    -0.80600
O300        O  0.06402986  0.44564937  0.81956143    -0.78200
C301        C  0.03833846  0.04469954  0.89804644     0.82900
O302        O  0.46970694  0.98025650  0.76348899    -0.79300
O303        O  0.99261870  0.12081553  0.80368989    -0.80800
O304        O  0.11461379  0.06931673  0.76976735    -0.80500
O305        O  0.10700095  0.47321480  0.78325634    -0.79200
Zn306      Zn  0.02653162  0.98939692  0.83061769     1.55700
O307        O  0.08926939  0.11774120  0.80210612    -0.80600
Cd308      Cd  0.07987119  0.02329261  0.76663203     1.59700
Cd309      Cd  0.49438086  0.03377515  0.76117727     1.59600
O310        O  0.06779451  0.01989170  0.70934499    -0.80600
O311        O  0.03579678  0.03396478  0.79665832    -1.91100
Cd312      Cd  0.03984945  0.08762710  0.82018153     1.59900
O313        O  0.01021007  0.04039472  0.70602297    -0.80500
O314        O  0.04137072  0.07654742  0.87858740    -0.79200
C315        C  0.45607826  0.46529775  0.79319890     0.83400
C316        C  0.09435753  0.44396500  0.80163670     0.83000
O317        O  0.03277381  0.01124398  0.88295150    -0.78100
C318        C  0.11527245  0.10423312  0.78186003     0.83800
O319        O  0.47314801  0.46729835  0.82475776    -0.78200
C320        C  0.03990961  0.03079258  0.69022775     0.84000
C321        C  0.46305841  0.11206432  0.78560134     0.84300
O322        O  0.45750552  0.07795177  0.77227342    -0.80600
C323        C  0.14921936  0.39365636  0.96168068     0.80600
N324        N  0.13086340  0.42144013  0.98034885    -0.77700
C325        C  0.14023504  0.43267831  0.01580997     0.83000
N326        N  0.16954758  0.41526411  0.03381260    -0.77700
C327        C  0.18845420  0.38673334  0.01500993     0.83100
N328        N  0.17763636  0.37630592  0.97960100    -0.79400
C329        C  0.10527420  0.34861962  0.75831266     0.80600
N330        N  0.09048639  0.38125993  0.77275685    -0.77700
C331        C  0.11089016  0.40564116  0.79458833     0.83000
N332        N  0.14721803  0.39739239  0.80169534    -0.77700
C333        C  0.16161677  0.36350788  0.78765036     0.83100
N334        N  0.14034418  0.34005129  0.76593974    -0.79400
C335        C  0.22153382  0.10870145  0.00102127     0.80600
N336        N  0.18787217  0.09780751  0.01248504    -0.77700
C337        C  0.16928777  0.11948449  0.03758614     0.83000
N338        N  0.18443091  0.15344019  0.05120349    -0.77700
C339        C  0.21925426  0.16371278  0.04044576     0.83100
N340        N  0.23728332  0.14132946  0.01529221    -0.79400
C341        C  0.18861107  0.13248979  0.71635151     0.80600
N342        N  0.15841882  0.11660094  0.73230011    -0.77700
C343        C  0.14613532  0.12806198  0.76669952     0.83000
N344        N  0.16530084  0.15613398  0.78636310    -0.77700
C345        C  0.19641116  0.17174075  0.77030675     0.83100
N346        N  0.20722630  0.15978917  0.73590704    -0.79400
O347        O  0.26161664  0.27202713  0.96104578    -0.78200
C348        C  0.23680863  0.20127296  0.04994527     0.82900
O349        O  0.24134161  0.37412745  0.55576450    -0.79300
O350        O  0.30130104  0.26511334  0.63379662    -0.80800
O351        O  0.37189763  0.25796647  0.01931797    -0.80500
O352        O  0.31885722  0.29290057  0.95425491    -0.79200
Zn353      Zn  0.25115825  0.28059698  0.01690221     1.55700
O354        O  0.36023700  0.21985306  0.56904937    -0.80600
Cd355      Cd  0.33434024  0.29871942  0.00913125     1.59700
Cd356      Cd  0.29055087  0.34451568  0.57300704     1.59600
O357        O  0.36030385  0.35128341  0.01218777    -0.80600
O358        O  0.29494975  0.29229262  0.04571375    -1.91100
Cd359      Cd  0.30694392  0.24492238  0.57865010     1.59900
O360        O  0.33482806  0.38352724  0.55950755    -0.80500
O361        O  0.26813957  0.20085571  0.56630920    -0.79200
C362        C  0.21770719  0.36186664  0.03177395     0.83400
C363        C  0.28898600  0.28054802  0.94038196     0.83000
O364        O  0.22372170  0.23235334  0.03501085    -0.78100
C365        C  0.38101642  0.23034049  0.04165874     0.83800
O366        O  0.21985185  0.32774748  0.01773538    -0.78200
C367        C  0.35826784  0.38127689  0.03284174     0.84000
C368        C  0.29525102  0.29819163  0.64941970     0.84300
O369        O  0.29083075  0.33030599  0.63075575    -0.80600
O370        O  0.20915988  0.32453227  0.76831652    -0.78200
C371        C  0.29253726  0.29856840  0.69071174     0.82900
O372        O  0.24243315  0.19858292  0.81146763    -0.79300
O373        O  0.36248101  0.24988053  0.77008948    -0.80800
O374        O  0.31389322  0.37704402  0.81731258    -0.80500
O375        O  0.22081047  0.35833236  0.82010803    -0.79200
Zn376      Zn  0.24586661  0.28442325  0.75942436     1.55700
O377        O  0.35943452  0.34582747  0.78885535    -0.80600
Cd378      Cd  0.27412922  0.33371254  0.82832119     1.59700
Cd379      Cd  0.28901713  0.23435272  0.82383277     1.59600
O380        O  0.27974472  0.31316844  0.88301399    -0.80600
O381        O  0.28442378  0.28696178  0.79580860    -1.91100
Cd382      Cd  0.33042483  0.29831559  0.76822858     1.59900
O383        O  0.28964942  0.24794420  0.88150681    -0.80500
O384        O  0.32051422  0.30745168  0.71064517    -0.79200
C385        C  0.21846472  0.20408984  0.78536801     0.83400
C386        C  0.19975037  0.34973214  0.79240579     0.83000
O387        O  0.26252962  0.28796588  0.70567324    -0.78100
C388        C  0.34611358  0.37651845  0.80330337     0.83800
O389        O  0.21847205  0.23488926  0.76493316    -0.78200
C390        C  0.28548821  0.28011001  0.89934194     0.84000
C391        C  0.36286192  0.21524277  0.78388892     0.84300
O392        O  0.33776594  0.20312363  0.80656154    -0.80600
C393        C  0.31391956  0.01354970  0.67266316    -0.05100
C394        C  0.29965133  0.04828939  0.68789284     0.09000
C395        C  0.31070110  0.06015276  0.72462200    -0.02500
C396        C  0.33248789  0.03531996  0.74715305    -0.00800
C397        C  0.34259684  0.49844634  0.73349613    -0.04400
C398        C  0.33480691  0.48812625  0.69578077     0.02600
C399        C  0.26775522  0.06816147  0.66964718     0.09500
C400        C  0.29848007  0.09699802  0.74024307     0.35400
C401        C  0.34805141  0.45134547  0.68099962     0.38800
C402        C  0.23302715  0.04992613  0.67257777    -0.04700
C403        C  0.20198711  0.07332850  0.67780472     0.02400
C404        C  0.20675903  0.11394706  0.68339335    -0.04300
C405        C  0.23855910  0.13190614  0.66817689    -0.00600
C406        C  0.26953601  0.10866093  0.66129142    -0.03100
C407        C  0.22967864  0.00752832  0.67534818     0.36100
C408        C  0.24067508  0.17420231  0.66405448     0.39700
C409        C  0.16628815  0.05515124  0.68106800     0.38900
C410        C  0.30430096  0.12663687  0.65139554     0.35800
C411        C  0.30611053  0.00357232  0.63367868     0.36500
C412        C  0.34346521  0.04685690  0.78503272     0.39700
N413        N  0.13792628  0.04012844  0.68333350    -0.38300
N414        N  0.22688128  0.47371416  0.67751700    -0.39900
N415        N  0.24221728  0.20801187  0.66095004    -0.37700
N416        N  0.33211427  0.14095688  0.64362503    -0.40100
N417        N  0.28931477  0.12647459  0.75292647    -0.39800
N418        N  0.35272260  0.05552152  0.81517128    -0.37500
N419        N  0.35866696  0.42202132  0.66921840    -0.38500
N420        N  0.29990309  0.49558336  0.60255081    -0.40200
C421        C  0.27358622  0.02419972  0.46045730    -0.05100
C422        C  0.28790413  0.04158694  0.92680264     0.09000
C423        C  0.27501993  0.07874561  0.91477160    -0.02500
C424        C  0.25233033  0.10057555  0.93865996    -0.00800
C425        C  0.24124333  0.08455200  0.97375169    -0.04400
C426        C  0.24994886  0.04553237  0.48347559     0.02600
C427        C  0.32134424  0.02417690  0.90974672     0.09500
C428        C  0.28639692  0.09532552  0.87875261     0.35400
C429        C  0.23663713  0.02817104  0.51858497     0.38800
C430        C  0.32071524  0.48447515  0.89898570    -0.04700
C431        C  0.34946245  0.45987190  0.91136557     0.02400
C432        C  0.37899441  0.47642036  0.93194030    -0.04300
C433        C  0.38535995  0.01717563  0.92768624    -0.00600
C434        C  0.35557773  0.04153229  0.91857556    -0.03100
C435        C  0.28798238  0.46816279  0.88175206     0.36100
C436        C  0.42067139  0.03445732  0.93690654     0.39700
C437        C  0.34657776  0.41770558  0.90719634     0.38900
C438        C  0.35896588  0.08353243  0.92396865     0.35800
C439        C  0.28473612  0.98538693  0.47327512     0.36500
C440        C  0.24073844  0.13970836  0.92743057     0.39700
N441        N  0.34418831  0.38400155  0.90414343    -0.38300
N442        N  0.26185756  0.45509159  0.86795326    -0.39900
N443        N  0.44878507  0.04844862  0.94415953    -0.37700
N444        N  0.36189841  0.11700987  0.92842063    -0.40100
N445        N  0.29536211  0.10924011  0.85026294    -0.39800
N446        N  0.23146250  0.17093408  0.91856501    -0.37500
N447        N  0.22600029  0.01424489  0.54645149    -0.38500
N448        N  0.29280920  0.95440406  0.48406366    -0.40200
C449        C  0.97251181  0.26916456  0.67185894    -0.05100
C450        C  0.00811515  0.25333073  0.66972770     0.09000
C451        C  0.01174237  0.21321572  0.66099759    -0.02500
C452        C  0.48166227  0.18784305  0.66717010    -0.00800
C453        C  0.44891531  0.20326227  0.68152983    -0.04400
C454        C  0.44245415  0.24341388  0.67492562     0.02600
C455        C  0.03908590  0.27461254  0.68830694     0.09500
C456        C  0.04725753  0.19768330  0.65134629     0.35400
C457        C  0.40549836  0.25800741  0.67322174     0.38800
C458        C  0.05220057  0.26084765  0.72391499    -0.04700
C459        C  0.07665243  0.28392879  0.74501441     0.02400
C460        C  0.08399789  0.32278318  0.73340039    -0.04300
C461        C  0.07241629  0.33609378  0.69739513    -0.00600
C462        C  0.05181172  0.31101086  0.67396757    -0.03100
C463        C  0.03913089  0.22407269  0.74021543     0.36100
C464        C  0.08217496  0.37527702  0.68425717     0.39700
C465        C  0.09417890  0.26779101  0.77870988     0.38900
C466        C  0.04424155  0.32252548  0.63519805     0.35800
C467        C  0.96698996  0.31097806  0.67602679     0.36500
C468        C  0.48497294  0.14604474  0.66219640     0.39700
N469        N  0.10898465  0.25484048  0.80503985    -0.38300
N470        N  0.02877992  0.19490968  0.75356086    -0.39900
N471        N  0.08976670  0.40660006  0.67383757    -0.37700
N472        N  0.53942793  0.33232563  0.60416095    -0.40100
N473        N  0.07564930  0.18524612  0.64373871    -0.39800
N474        N  0.48694132  0.11251921  0.65827282    -0.37500
N475        N  0.37588109  0.26948017  0.67081712    -0.38500
N476        N  0.96245444  0.34431561  0.67958975    -0.40200
C477        C  0.10610735  0.30997051  0.41801960    -0.05100
C478        C  0.07103448  0.32699739  0.91578318     0.09000
C479        C  0.06819772  0.36751007  0.90754537    -0.02500
C480        C  0.09913824  0.39180559  0.91310790    -0.00800
C481        C  0.13158041  0.37518469  0.92790178    -0.04400
C482        C  0.13683106  0.33473682  0.42190185     0.02600
C483        C  0.03943118  0.30537128  0.93280090     0.09500
C484        C  0.03298053  0.38421616  0.89772969     0.35400
C485        C  0.17340429  0.31895967  0.42135678     0.38800
C486        C  0.52832363  0.31486002  0.46972600    -0.04700
C487        C  0.50337887  0.29064647  0.48920040     0.02400
C488        C  0.49120317  0.25565568  0.97298001    -0.04300
C489        C  0.00011715  0.24712154  0.93527937    -0.00600
C490        C  0.02360631  0.27252943  0.91488852    -0.03100
C491        C  0.54391418  0.34864132  0.48877429     0.36100
C492        C  0.98461656  0.21267491  0.91736362     0.39700
C493        C  0.49071992  0.30134065  0.52647207     0.38900
C494        C  0.03140085  0.26493095  0.87563367     0.35800
C495        C  0.11043851  0.26778131  0.42082480     0.36500
C496        C  0.09729905  0.43378396  0.90699404     0.39700
N497        N  0.47942863  0.30931966  0.55584411    -0.38300
N498        N  0.55615194  0.37547553  0.50425863    -0.39900
N499        N  0.97211819  0.18533959  0.90291398    -0.37700
N500        N  0.03685422  0.25866643  0.84413879    -0.40100
N501        N  0.00479599  0.39743179  0.88977948    -0.39800
N502        N  0.09691909  0.46739635  0.90207625    -0.37500
N503        N  0.20268338  0.30644965  0.41991741    -0.38500
N504        N  0.11402265  0.23410839  0.42313813    -0.40200
C505        C  0.46982085  0.72756833  0.49614796     0.80600
N506        N  0.48474165  0.69388554  0.50842440    -0.77700
C507        C  0.46697303  0.66968374  0.03303611     0.83000
N508        N  0.43266140  0.67967866  0.04580089    -0.77700
C509        C  0.41788305  0.71470448  0.03341641     0.83100
N510        N  0.43693771  0.73769245  0.50895090    -0.79400
C511        C  0.43167380  0.68403423  0.21536411     0.80600
N512        N  0.44986642  0.65553441  0.23430758    -0.77700
C513        C  0.44008695  0.64364609  0.26951280     0.83000
N514        N  0.41079763  0.66089772  0.28704074    -0.77700
C515        C  0.39204203  0.68999684  0.26790448     0.83100
N516        N  0.40318444  0.70105856  0.23271289    -0.79400
C517        C  0.39278655  0.95611332  0.46691728     0.80600
N518        N  0.37190395  0.92852131  0.48434433    -0.77700
C519        C  0.37980860  0.91530855  0.51982812     0.83000
N520        N  0.40983808  0.92980191  0.53863549    -0.77700
C521        C  0.43094346  0.95781258  0.52101101     0.83100
N522        N  0.42215400  0.97036261  0.48568036    -0.79400
C523        C  0.36240034  0.97138697  0.25858937     0.80600
N524        N  0.34583060  0.93931256  0.27323969    -0.77700
C525        C  0.36468494  0.91396204  0.29576398     0.83000
N526        N  0.40114895  0.92075688  0.30355150    -0.77700
C527        C  0.41719295  0.95434763  0.28957174     0.83100
N528        N  0.39758671  0.97879879  0.26700853    -0.79400
O529        O  0.49428263  0.96624837  0.52289382    -0.78200
C530        C  0.04173593  0.54582950  0.43943550     0.82900
O531        O  0.12267602  0.98285545  0.06087521    -0.79300
O532        O  0.10724932  0.61226183  0.52212232    -0.80800
O533        O  0.47428516  0.60510675  0.06301141    -0.80500
O534        O  0.46060540  0.50673476  0.05728770    -0.79200
Zn535      Zn  0.04003442  0.49762209  0.51265914     1.55700
O536        O  0.01647617  0.62890267  0.52380473    -0.80600
Cd537      Cd  0.49921497  0.54929516  0.07365957     1.59700
Cd538      Cd  0.09139324  0.53243019  0.07780421     1.59600
O539        O  0.01290831  0.54140749  0.13023192    -0.80600
O540        O  0.04638352  0.54180340  0.54489185    -1.91100
Cd541      Cd  0.05564070  0.58891263  0.51297224     1.59900
O542        O  0.07313312  0.52806077  0.13317513    -0.80500
O543        O  0.05044812  0.57767389  0.45569547    -0.79200
C544        C  0.11476672  0.96123456  0.53262350     0.83400
C545        C  0.46386046  0.97592863  0.53728103     0.83000
O546        O  0.03627372  0.51426414  0.45815779    -0.78100
C547        C  0.48640858  0.63239018  0.54137872     0.83800
O548        O  0.08449765  0.96515521  0.51502241    -0.78200
C549        C  0.04211359  0.53327230  0.14888098     0.83600
C550        C  0.13239978  0.60510829  0.54631686     0.84300
O551        O  0.12889735  0.57889922  0.07213376    -0.80600
O552        O  0.06401371  0.94561629  0.31960775    -0.78200
C553        C  0.03832345  0.54469719  0.39804973     0.82900
O554        O  0.46972043  0.48023192  0.26347972    -0.79300
O555        O  0.99264938  0.62078159  0.30370200    -0.80800
O556        O  0.11467938  0.56923317  0.26982322    -0.80500
O557        O  0.10694540  0.97312831  0.28321354    -0.79200
Zn558      Zn  0.02651060  0.48936635  0.33063188     1.55700
O559        O  0.08929930  0.61768078  0.30210411    -0.80600
Cd560      Cd  0.07988264  0.52324663  0.26663795     1.59700
Cd561      Cd  0.49438470  0.53375267  0.26119293     1.59600
O562        O  0.06780445  0.51992884  0.20934357    -0.80600
O563        O  0.03580718  0.53392394  0.29666519    -1.91100
Cd564      Cd  0.03987415  0.58758707  0.32018205     1.59900
O565        O  0.01020433  0.54038960  0.20603624    -0.80500
O566        O  0.04139139  0.57653680  0.37858670    -0.79200
C567        C  0.45605886  0.96527424  0.29318817     0.83400
C568        C  0.09432232  0.94390473  0.30165053     0.83000
O569        O  0.03273058  0.51124452  0.38295846    -0.78100
C570        C  0.11532388  0.60415907  0.28189587     0.83800
O571        O  0.47311942  0.96727509  0.32475280    -0.78200
C572        C  0.03990967  0.53081871  0.19023402     0.84000
C573        C  0.46307376  0.61203358  0.28564062     0.84300
O574        O  0.45750422  0.57791888  0.27232383    -0.80600
C575        C  0.14909060  0.89351119  0.46164810     0.80600
N576        N  0.13076944  0.92132488  0.48031122    -0.77700
C577        C  0.14019110  0.93260701  0.51574546     0.83000
N578        N  0.16952341  0.91521055  0.53372503    -0.77700
C579        C  0.18839725  0.88665042  0.51493051     0.83100
N580        N  0.17752693  0.87617360  0.47954960    -0.79400
C581        C  0.10525913  0.84850363  0.25843200     0.80600
N582        N  0.09046332  0.88115991  0.27283762    -0.77700
C583        C  0.11085972  0.90556922  0.29464856     0.83000
N584        N  0.14719080  0.89733633  0.30176240    -0.77700
C585        C  0.16159646  0.86343720  0.28775396     0.83100
N586        N  0.14032891  0.83995106  0.26607083    -0.79400
C587        C  0.22147816  0.60868884  0.50096063     0.80600
N588        N  0.18782441  0.59779391  0.51244529    -0.77700
C589        C  0.16925595  0.61946754  0.53756053     0.83000
N590        N  0.18440578  0.65341899  0.55117427    -0.77700
C591        C  0.21922082  0.66369307  0.54039559     0.83100
N592        N  0.23723674  0.64131508  0.51522622    -0.79400
C593        C  0.18863936  0.63248210  0.21637682     0.80600
N594        N  0.15847415  0.61654534  0.23233885    -0.77700
C595        C  0.14618589  0.62799409  0.26674091     0.83000
N596        N  0.16532569  0.65609171  0.28639867    -0.77700
C597        C  0.19641213  0.67174091  0.27033002     0.83100
N598        N  0.20722565  0.65980815  0.23592501    -0.79400
O599        O  0.26163276  0.77197714  0.46104327    -0.78200
C600        C  0.23677773  0.70124509  0.54990470     0.82900
O601        O  0.24137857  0.87415467  0.05584906    -0.79300
O602        O  0.30136860  0.76512804  0.13383641    -0.80800
O603        O  0.37184193  0.75788866  0.51934678    -0.80500
O604        O  0.31886613  0.79289155  0.45428268    -0.79200
Zn605      Zn  0.25114786  0.78055743  0.51687629     1.55700
O606        O  0.36029896  0.71992821  0.06905769    -0.80600
Cd607      Cd  0.33433368  0.79867985  0.50916446     1.59700
Cd608      Cd  0.29059600  0.84453332  0.07305202     1.59600
O609        O  0.36034865  0.85120884  0.51226950    -0.80600
O610        O  0.29492009  0.79225712  0.54570887    -1.91100
Cd611      Cd  0.30699254  0.74495368  0.07867560     1.59900
O612        O  0.33486322  0.88354914  0.05951410    -0.80500
O613        O  0.26819003  0.70087756  0.06634296    -0.79200
C614        C  0.21767196  0.86181199  0.53169067     0.83400
C615        C  0.28900754  0.78051770  0.44039727     0.83000
O616        O  0.22369930  0.73232776  0.53496968    -0.78100
C617        C  0.38095466  0.73025281  0.54167627     0.83800
O618        O  0.21983229  0.82769038  0.51766505    -0.78200
C619        C  0.35827672  0.88121546  0.53290068     0.84000
C620        C  0.29532444  0.79820379  0.14946748     0.84300
O621        O  0.29090432  0.83032036  0.13080628    -0.80600
O622        O  0.20917211  0.82454128  0.26835184    -0.78200
C623        C  0.29259761  0.79857264  0.19076266     0.82900
O624        O  0.24242789  0.69857422  0.31150125    -0.79300
O625        O  0.36251780  0.74987407  0.27016475    -0.80800
O626        O  0.31385790  0.87704323  0.31732900    -0.80500
O627        O  0.22079281  0.85826230  0.32019947    -0.79200
Zn628      Zn  0.24588694  0.78442651  0.25945748     1.55700
O629        O  0.35944097  0.84580382  0.28896694    -0.80600
Cd630      Cd  0.27412937  0.83368446  0.32836372     1.59700
Cd631      Cd  0.28902525  0.73432483  0.32386029     1.59600
O632        O  0.27978113  0.81314254  0.38304118    -0.80600
O633        O  0.28443439  0.78694014  0.29585024    -1.91100
Cd634      Cd  0.33044988  0.79830065  0.26830170     1.59900
O635        O  0.28966678  0.74791408  0.38152899    -0.80500
O636        O  0.32056660  0.80745170  0.21071117    -0.79200
C637        C  0.21846403  0.70408891  0.28539865     0.83400
C638        C  0.19974378  0.84969525  0.29247987     0.83000
O639        O  0.26258164  0.78797299  0.20571099    -0.78100
C640        C  0.34609256  0.87651103  0.30335545     0.83800
O641        O  0.21848373  0.73488918  0.26496248    -0.78200
C642        C  0.28552033  0.78008212  0.39936319     0.84000
C643        C  0.36288808  0.71522683  0.28394096     0.84300
O644        O  0.33777462  0.70309311  0.30658649    -0.80600
C645        C  0.31399507  0.51363265  0.17257525    -0.05100
C646        C  0.29969058  0.54832573  0.18786418     0.09000
C647        C  0.31068176  0.56010230  0.22463649    -0.02500
C648        C  0.33246046  0.53523308  0.24713740    -0.00800
C649        C  0.34257926  0.99839883  0.23345927    -0.04400
C650        C  0.33484306  0.98816621  0.19570941     0.02600
C651        C  0.26780489  0.56822047  0.16962434     0.09500
C652        C  0.29840057  0.59688916  0.24033087     0.35400
C653        C  0.34810685  0.95142103  0.18086849     0.38800
C654        C  0.23307808  0.54997705  0.17251556    -0.04700
C655        C  0.20203326  0.57336652  0.17776771     0.02400
C656        C  0.20679847  0.61397774  0.18340452    -0.04300
C657        C  0.23859973  0.63196042  0.16821450    -0.00600
C658        C  0.26958561  0.60873112  0.16132379    -0.03100
C659        C  0.22973818  0.50757518  0.17521572     0.36100
C660        C  0.24070175  0.67425981  0.16411508     0.39700
C661        C  0.16633234  0.55518426  0.18098849     0.38900
C662        C  0.30434961  0.62672530  0.15145598     0.35800
C663        C  0.30624428  0.50375489  0.13355464     0.36500
C664        C  0.34339448  0.54668966  0.28505354     0.39700
N665        N  0.13796668  0.54016255  0.18321686    -0.38300
N666        N  0.22693418  0.97376739  0.17737731    -0.39900
N667        N  0.24222982  0.70807158  0.16102744    -0.37700
N668        N  0.33215870  0.64106337  0.14369928    -0.40100
N669        N  0.28918163  0.62631602  0.25307688    -0.39800
N670        N  0.35262173  0.55528550  0.31522053    -0.37500
N671        N  0.35873115  0.92212350  0.16903599    -0.38500
N672        N  0.30009053  0.99587274  0.10243058    -0.40200
C673        C  0.27363749  0.52427618  0.96042076    -0.05100
C674        C  0.28784871  0.54152321  0.42678970     0.09000
C675        C  0.27494421  0.57866119  0.41472165    -0.02500
C676        C  0.25225533  0.60051027  0.43859478    -0.00800
C677        C  0.24118182  0.58451916  0.47370387    -0.04400
C678        C  0.24999077  0.54559057  0.98344459     0.02600
C679        C  0.32130228  0.52411933  0.40975637     0.09500
C680        C  0.28630100  0.59520164  0.37867990     0.35400
C681        C  0.23666330  0.52820007  0.01853435     0.38800
C682        C  0.32065263  0.98435620  0.39903568    -0.04700
C683        C  0.34941260  0.95978330  0.41143853     0.02400
C684        C  0.37892854  0.97636562  0.43201407    -0.04300
C685        C  0.38530272  0.51717007  0.42777946    -0.00600
C686        C  0.35552100  0.54150064  0.41859500    -0.03100
C687        C  0.28792901  0.96800576  0.38181744     0.36100
C688        C  0.42058252  0.53448944  0.43706626     0.39700
C689        C  0.34655531  0.91761174  0.40729145     0.38900
C690        C  0.35888769  0.58351427  0.42391159     0.35800
C691        C  0.28476169  0.48544215  0.97320229     0.36500
C692        C  0.24065058  0.63962850  0.42733210     0.39700
N693        N  0.34418853  0.88390399  0.40425723    -0.38300
N694        N  0.26181275  0.95490195  0.36803019    -0.39900
N695        N  0.44866999  0.54851185  0.44437308    -0.37700
N696        N  0.36180242  0.61700367  0.42829650    -0.40100
N697        N  0.29524818  0.60908363  0.35016991    -0.39800
N698        N  0.23136452  0.67084282  0.41843928    -0.37500
N699        N  0.22601778  0.51425142  0.04638718    -0.38500
N700        N  0.29281425  0.45444124  0.98395818    -0.40200
C701        C  0.97263117  0.76913433  0.17184414    -0.05100
C702        C  0.00821657  0.75325862  0.16970479     0.09000
C703        C  0.01179986  0.71313706  0.16099219    -0.02500
C704        C  0.48170170  0.68779965  0.16721211    -0.00800
C705        C  0.44898305  0.70326345  0.18159852    -0.04400
C706        C  0.44255352  0.74342025  0.17498507     0.02600
C707        C  0.03919649  0.77449562  0.18831103     0.09500
C708        C  0.04729389  0.69756488  0.15131921     0.35400
C709        C  0.40561213  0.75805929  0.17333089     0.38800
C710        C  0.05224562  0.76073048  0.22394468    -0.04700
C711        C  0.07665486  0.78381408  0.24509252     0.02400
C712        C  0.08401761  0.82266787  0.23348996    -0.04300
C713        C  0.07252506  0.83596527  0.19744894    -0.00600
C714        C  0.05196776  0.81087800  0.17398244    -0.03100
C715        C  0.03915034  0.72395409  0.24021886     0.36100
C716        C  0.08232680  0.87513827  0.18431880     0.39700
C717        C  0.09412243  0.76767841  0.27882183     0.38900
C718        C  0.04448586  0.82236206  0.13518565     0.35800
C719        C  0.96715655  0.81096359  0.17594544     0.36500
C720        C  0.48496809  0.64599545  0.16225794     0.39700
N721        N  0.10887924  0.75472613  0.30518041    -0.38300
N722        N  0.02878033  0.69478918  0.25354423    -0.39900
N723        N  0.08995665  0.90645502  0.17391166    -0.37700
N724        N  0.53973471  0.83210441  0.10412274    -0.40100
N725        N  0.07566934  0.68509885  0.14369165    -0.39800
N726        N  0.48689476  0.61246461  0.15835417    -0.37500
N727        N  0.37600504  0.76956955  0.17096602    -0.38500
N728        N  0.96266228  0.84431514  0.17945114    -0.40200
C729        C  0.10621857  0.81012201  0.91817308    -0.05100
C730        C  0.07091246  0.82679553  0.41563115     0.09000
C731        C  0.06805224  0.86731423  0.40744377    -0.02500
C732        C  0.09895777  0.89163575  0.41310819    -0.00800
C733        C  0.13140872  0.87502119  0.42789712    -0.04400
C734        C  0.13696687  0.83486389  0.92196189     0.02600
C735        C  0.03933170  0.80515666  0.43268165     0.09500
C736        C  0.03283553  0.88398860  0.39757210     0.35400
C737        C  0.17352071  0.81904195  0.92143903     0.38800
C738        C  0.52834623  0.81512943  0.96980558    -0.04700
C739        C  0.50340393  0.79091320  0.98928219     0.02400
C740        C  0.49106702  0.75548378  0.47286317    -0.04300
C741        C  0.99989667  0.74699551  0.43513206    -0.00600
C742        C  0.02343019  0.77236535  0.41474960    -0.03100
C743        C  0.54387113  0.84896367  0.98882186     0.36100
C744        C  0.98423512  0.71265517  0.41717275     0.39700
C745        C  0.49066607  0.80167720  0.02650616     0.38900
C746        C  0.03118133  0.76477799  0.37548424     0.35800
C747        C  0.11051936  0.76793426  0.92109320     0.36500
C748        C  0.09707028  0.93362373  0.40708408     0.39700
N749        N  0.47933489  0.80973577  0.05584113    -0.38300
N750        N  0.55605840  0.87583747  0.00428336    -0.39900
N751        N  0.97159155  0.68541422  0.40268952    -0.37700
N752        N  0.03659272  0.75850673  0.34398267    -0.40100
N753        N  0.00465343  0.89717532  0.38956480    -0.39800
N754        N  0.09665521  0.96724703  0.40225030    -0.37500
N755        N  0.20278228  0.80648634  0.92002142    -0.38500
N756        N  0.11408031  0.73426414  0.92350168    -0.40200
C757        C  0.46995693  0.72774904  0.99627997     0.80600
N758        N  0.48485903  0.69404028  0.00851908    -0.77700
C759        C  0.46688682  0.66956420  0.53299745     0.83000
N760        N  0.43258988  0.67957519  0.54579285    -0.77700
C761        C  0.41779552  0.71458115  0.53337402     0.83100
N762        N  0.43705528  0.73785399  0.00905234    -0.79400
C763        C  0.43162170  0.68401846  0.71531102     0.80600
N764        N  0.44983331  0.65553720  0.73426255    -0.77700
C765        C  0.44007151  0.64366680  0.76947985     0.83000
N766        N  0.41078508  0.66092068  0.78701107    -0.77700
C767        C  0.39201118  0.68999937  0.76786546     0.83100
N768        N  0.40313201  0.70103888  0.73266164    -0.79400
C769        C  0.39280616  0.95615413  0.96685471     0.80600
N770        N  0.37191903  0.92855488  0.98426839    -0.77700
C771        C  0.37979362  0.91536292  0.01976849     0.83000
N772        N  0.40979694  0.92988288  0.03860220    -0.77700
C773        C  0.43090749  0.95789798  0.02099066     0.83100
N774        N  0.42214654  0.97042795  0.98564673    -0.79400
C775        C  0.36239446  0.97146048  0.75868294     0.80600
N776        N  0.34584102  0.93935285  0.77328276    -0.77700
C777        C  0.36470612  0.91397306  0.79576394     0.83000
N778        N  0.40117215  0.92076352  0.80354590    -0.77700
C779        C  0.41720191  0.95438517  0.78961538     0.83100
N780        N  0.39758180  0.97886937  0.76709914    -0.79400
O781        O  0.49425353  0.96629256  0.02292381    -0.78200
C782        C  0.04175026  0.54582611  0.93943780     0.82900
O783        O  0.12267575  0.98279269  0.56084074    -0.79300
O784        O  0.10728917  0.61225647  0.02208954    -0.80800
O785        O  0.47423870  0.60500916  0.56301017    -0.80500
O786        O  0.46063771  0.50663318  0.55732147    -0.79200
Zn787      Zn  0.04002997  0.49763899  0.01268327     1.55700
O788        O  0.01652316  0.62897309  0.02378948    -0.80600
Cd789      Cd  0.49921909  0.54922670  0.57366643     1.59700
Cd790      Cd  0.09139892  0.53236902  0.57779340     1.59600
O791        O  0.01292336  0.54136961  0.63023275    -0.80600
O792        O  0.04638120  0.54184586  0.04489239    -1.91100
Cd793      Cd  0.05565907  0.58894110  0.01295811     1.59900
O794        O  0.07314562  0.52800567  0.63317343    -0.80500
O795        O  0.05045264  0.57767671  0.95569149    -0.79200
C796        C  0.11477352  0.96127042  0.03267614     0.83400
C797        C  0.46382394  0.97600937  0.03727418     0.83000
O798        O  0.03629064  0.51426244  0.95816636    -0.78100
C799        C  0.48646624  0.63248266  0.04137951     0.83800
O800        O  0.08450031  0.96516184  0.01507293    -0.78200
C801        C  0.04212773  0.53323157  0.64888052     0.83600
C802        C  0.13242343  0.60513420  0.04631155     0.84300
O803        O  0.12889772  0.57883663  0.57210817    -0.80600
O804        O  0.06403068  0.94565718  0.81955778    -0.78200
C805        C  0.03833918  0.54469323  0.89805138     0.82900
O806        O  0.46971835  0.48025549  0.76348660    -0.79300
O807        O  0.99262621  0.62081193  0.80369944    -0.80800
O808        O  0.11462371  0.56930569  0.76977605    -0.80500
O809        O  0.10700073  0.97322453  0.78325292    -0.79200
Zn810      Zn  0.02653298  0.48939186  0.83062141     1.55700
O811        O  0.08927776  0.61773272  0.80211036    -0.80600
Cd812      Cd  0.07987692  0.52328604  0.76663798     1.59700
Cd813      Cd  0.49438908  0.53377563  0.76118233     1.59600
O814        O  0.06780289  0.51989010  0.70935033    -0.80600
O815        O  0.03580285  0.53396010  0.79666375    -1.91100
Cd816      Cd  0.03985699  0.58762142  0.82018713     1.59900
O817        O  0.01022075  0.54040022  0.70602864    -0.80500
O818        O  0.04137662  0.57654011  0.87859184    -0.79200
C819        C  0.45607215  0.96529867  0.79320394     0.83400
C820        C  0.09435900  0.94397432  0.80163410     0.83000
O821        O  0.03277155  0.51123781  0.88295696    -0.78100
C822        C  0.11528171  0.60422285  0.78186650     0.83800
O823        O  0.47314697  0.96730006  0.82475993    -0.78200
C824        C  0.03991967  0.53079599  0.69023330     0.84000
C825        C  0.46306471  0.61206120  0.78561338     0.84300
O826        O  0.45751182  0.57794903  0.77228447    -0.80600
C827        C  0.14921946  0.89364641  0.96167737     0.80600
N828        N  0.13086005  0.92142879  0.98034391    -0.77700
C829        C  0.14022760  0.93266686  0.01580622     0.83000
N830        N  0.16953951  0.91525418  0.03381152    -0.77700
C831        C  0.18844962  0.88672482  0.01501071     0.83100
N832        N  0.17763570  0.87629717  0.97960045    -0.79400
C833        C  0.10527512  0.84862621  0.75831585     0.80600
N834        N  0.09048872  0.88126871  0.77275655    -0.77700
C835        C  0.11089274  0.90565057  0.79458684     0.83000
N836        N  0.14721984  0.89739967  0.80169712    -0.77700
C837        C  0.16161715  0.86351239  0.78765577     0.83100
N838        N  0.14034410  0.84005583  0.76594567    -0.79400
C839        C  0.22152811  0.60871907  0.00099635     0.80600
N840        N  0.18786638  0.59782433  0.01245958    -0.77700
C841        C  0.16928799  0.61949193  0.03757313     0.83000
N842        N  0.18443671  0.65343836  0.05120364    -0.77700
C843        C  0.21925893  0.66371201  0.04044495     0.83100
N844        N  0.23728297  0.64133824  0.01527968    -0.79400
C845        C  0.18861987  0.63248002  0.71635702     0.80600
N846        N  0.15842875  0.61658924  0.73230638    -0.77700
C847        C  0.14614457  0.62805078  0.76670544     0.83000
N848        N  0.16530817  0.65612464  0.78636796    -0.77700
C849        C  0.19641748  0.67173288  0.77031135     0.83100
N850        N  0.20723358  0.65978124  0.73591189    -0.79400
O851        O  0.26161231  0.77201930  0.96105534    -0.78200
C852        C  0.23681283  0.70126891  0.04995205     0.82900
O853        O  0.24133575  0.87412119  0.55576848    -0.79300
O854        O  0.30129805  0.76510905  0.63380596    -0.80800
O855        O  0.37189752  0.75796247  0.01933171    -0.80500
O856        O  0.31885519  0.79288436  0.95426386    -0.79200
Zn857      Zn  0.25115641  0.78059134  0.01691160     1.55700
O858        O  0.36024038  0.71985352  0.56906648    -0.80600
Cd859      Cd  0.33433659  0.79870909  0.00913971     1.59700
Cd860      Cd  0.29054537  0.84450974  0.57301413     1.59600
O861        O  0.36029545  0.85127452  0.01219236    -0.80600
O862        O  0.29494739  0.79228646  0.04572289    -1.91100
Cd863      Cd  0.30694443  0.74491808  0.57866052     1.59900
O864        O  0.33482280  0.88351989  0.55951312    -0.80500
O865        O  0.26814472  0.70084944  0.56631404    -0.79200
C866        C  0.21770218  0.86185925  0.03177794     0.83400
C867        C  0.28898243  0.78053603  0.94039121     0.83000
O868        O  0.22372301  0.73235100  0.03502442    -0.78100
C869        C  0.38101946  0.73034086  0.04167594     0.83800
O870        O  0.21984779  0.82773953  0.01774132    -0.78200
C871        C  0.35826071  0.88126852  0.03284565     0.84000
C872        C  0.29524715  0.79818738  0.64942834     0.84300
O873        O  0.29082554  0.83030123  0.63076369    -0.80600
O874        O  0.20915774  0.82452918  0.76832800    -0.78200
C875        C  0.29253458  0.79856447  0.69072046     0.82900
O876        O  0.24243727  0.69857637  0.81147249    -0.79300
O877        O  0.36248404  0.74987639  0.77010185    -0.80800
O878        O  0.31389278  0.87703639  0.81732864    -0.80500
O879        O  0.22080998  0.85833325  0.82011627    -0.79200
Zn880      Zn  0.24586468  0.78442014  0.75943397     1.55700
O881        O  0.35943178  0.84582531  0.78886155    -0.80600
Cd882      Cd  0.27412651  0.83370651  0.82833221     1.59700
Cd883      Cd  0.28901846  0.73434734  0.82384067     1.59600
O884        O  0.27973825  0.81315831  0.88302455    -0.80600
O885        O  0.28442320  0.78695720  0.79581745    -1.91100
Cd886      Cd  0.33042483  0.79831012  0.76823735     1.59900
O887        O  0.28964862  0.74793526  0.88151482    -0.80500
O888        O  0.32051378  0.80744167  0.71065317    -0.79200
C889        C  0.21846858  0.70408305  0.78537321     0.83400
C890        C  0.19974954  0.84973260  0.79241446     0.83000
O891        O  0.26252583  0.78796687  0.70568261    -0.78100
C892        C  0.34611171  0.87651354  0.80331594     0.83800
O893        O  0.21847305  0.73488382  0.76494020    -0.78200
C894        C  0.28548406  0.78009960  0.89935123     0.84000
C895        C  0.36286542  0.71523876  0.78390185     0.84300
O896        O  0.33776847  0.70311915  0.80657288    -0.80600
C897        C  0.31392734  0.51354657  0.67264206    -0.05100
C898        C  0.29966147  0.54828777  0.68787136     0.09000
C899        C  0.31071836  0.56015461  0.72459741    -0.02500
C900        C  0.33250763  0.53532308  0.74712709    -0.00800
C901        C  0.34258200  0.99844581  0.73351981    -0.04400
C902        C  0.33479633  0.98812794  0.69580291     0.02600
C903        C  0.26776200  0.56815856  0.66962999     0.09500
C904        C  0.29850205  0.59700213  0.74021773     0.35400
C905        C  0.34804073  0.95134717  0.68102167     0.38800
C906        C  0.23303495  0.54992157  0.67256539    -0.04700
C907        C  0.20199543  0.57332189  0.67780367     0.02400
C908        C  0.20676723  0.61393982  0.68339687    -0.04300
C909        C  0.23856383  0.63190236  0.66817611    -0.00600
C910        C  0.26953932  0.60865907  0.66127818    -0.03100
C911        C  0.22968763  0.50752323  0.67532867     0.36100
C912        C  0.24067858  0.67419924  0.66406036     0.39700
C913        C  0.16629776  0.55514256  0.68107196     0.38900
C914        C  0.30430154  0.62663767  0.65137627     0.35800
C915        C  0.30611310  0.50356607  0.63365940     0.36500
C916        C  0.34349197  0.54686436  0.78500346     0.39700
N917        N  0.13793699  0.54011801  0.68334122    -0.38300
N918        N  0.22687208  0.97371962  0.67754263    -0.39900
N919        N  0.24221974  0.70800930  0.66096160    -0.37700
N920        N  0.33211275  0.64095982  0.64360146    -0.40100
N921        N  0.28934102  0.62648049  0.75290058    -0.39800
N922        N  0.35275429  0.55553380  0.81513917    -0.37500
N923        N  0.35865539  0.92202258  0.66924046    -0.38500
N924        N  0.29990486  0.99559263  0.60256851    -0.40200
C925        C  0.27359004  0.52421986  0.46044212    -0.05100
C926        C  0.28791939  0.54161175  0.92679376     0.09000
C927        C  0.27503964  0.57877176  0.91476091    -0.02500
C928        C  0.25233890  0.60059809  0.93864131    -0.00800
C929        C  0.24123923  0.58457076  0.97372713    -0.04400
C930        C  0.24994352  0.54554944  0.48345273     0.02600
C931        C  0.32136487  0.52420200  0.90974889     0.09500
C932        C  0.28643670  0.59535886  0.87875156     0.35400
C933        C  0.23662304  0.52818568  0.51855753     0.38800
C934        C  0.32069272  0.98444895  0.89898801    -0.04700
C935        C  0.34944244  0.95984745  0.91136477     0.02400
C936        C  0.37897750  0.97639861  0.93193295    -0.04300
C937        C  0.38537735  0.51719806  0.92770020    -0.00600
C938        C  0.35559611  0.54155606  0.91858992    -0.03100
C939        C  0.28795775  0.96813547  0.88175997     0.36100
C940        C  0.42068746  0.53447894  0.93692774     0.39700
C941        C  0.34655815  0.91768066  0.90719917     0.38900
C942        C  0.35898150  0.58355420  0.92399915     0.35800
C943        C  0.28474086  0.48540855  0.47326386     0.36500
C944        C  0.24075000  0.63973156  0.92741095     0.39700
N945        N  0.34416949  0.88397638  0.90414893    -0.38300
N946        N  0.26183143  0.95506379  0.86796451    -0.39900
N947        N  0.44879976  0.54847041  0.94418618    -0.37700
N948        N  0.36191169  0.61702965  0.92846537    -0.40100
N949        N  0.29542046  0.60927889  0.85027063    -0.39800
N950        N  0.23147638  0.67095773  0.91854416    -0.37500
N951        N  0.22597979  0.51425803  0.54642073    -0.38500
N952        N  0.29281566  0.45442731  0.48405543    -0.40200
C953        C  0.97250536  0.76915909  0.67187382    -0.05100
C954        C  0.00811058  0.75332920  0.66974465     0.09000
C955        C  0.01174252  0.71321491  0.66101344    -0.02500
C956        C  0.48166302  0.68783776  0.66718304    -0.00800
C957        C  0.44891396  0.70325418  0.68154014    -0.04400
C958        C  0.44245038  0.74340497  0.67493555     0.02600
C959        C  0.03908006  0.77461542  0.68832124     0.09500
C960        C  0.04726034  0.69768639  0.65136622     0.35400
C961        C  0.40549337  0.75799467  0.67322680     0.38800
C962        C  0.05220245  0.76085022  0.72392620    -0.04700
C963        C  0.07665523  0.78393347  0.74502231     0.02400
C964        C  0.08399731  0.82278818  0.73340668    -0.04300
C965        C  0.07240926  0.83609830  0.69740349    -0.00600
C966        C  0.05180058  0.81101511  0.67398020    -0.03100
C967        C  0.03914207  0.72407093  0.74022575     0.36100
C968        C  0.08216731  0.87528065  0.68426231     0.39700
C969        C  0.09418658  0.76779732  0.77871585     0.38900
C970        C  0.04422077  0.82253046  0.63521280     0.35800
C971        C  0.96697841  0.81097126  0.67604597     0.36500
C972        C  0.48497723  0.64603965  0.66221074     0.39700
N973        N  0.10899636  0.75484834  0.80504411    -0.38300
N974        N  0.02879940  0.69490377  0.75356968    -0.39900
N975        N  0.08975944  0.90660251  0.67383984    -0.37700
N976        N  0.53940014  0.83232563  0.60417645    -0.40100
N977        N  0.07565458  0.68525252  0.64376289    -0.39800
N978        N  0.48694816  0.61251423  0.65828885    -0.37500
N979        N  0.37587502  0.76946369  0.67081829    -0.38500
N980        N  0.96243816  0.84430751  0.67961238    -0.40200
C981        C  0.10610762  0.80996090  0.41802097    -0.05100
C982        C  0.07103625  0.82699089  0.91578094     0.09000
C983        C  0.06820312  0.86750239  0.90753600    -0.02500
C984        C  0.09914489  0.89179637  0.91309759    -0.00800
C985        C  0.13158487  0.87517462  0.92789618    -0.04400
C986        C  0.13683273  0.83472542  0.42190083     0.02600
C987        C  0.03943057  0.80537104  0.93280110     0.09500
C988        C  0.03298778  0.88420961  0.89771469     0.35400
C989        C  0.17340465  0.81894496  0.42135934     0.38800
C990        C  0.52831600  0.81487284  0.46972086    -0.04700
C991        C  0.50336938  0.79066554  0.48919973     0.02400
C992        C  0.49120118  0.75566603  0.97299195    -0.04300
C993        C  0.00011964  0.74711986  0.93529424    -0.00600
C994        C  0.02360863  0.77252248  0.91489739    -0.03100
C995        C  0.54390481  0.84865960  0.48876157     0.36100
C996        C  0.98462166  0.71266664  0.91738768     0.39700
C997        C  0.49070132  0.80137617  0.52646337     0.38900
C998        C  0.03140889  0.76490949  0.87564655     0.35800
C999        C  0.11043592  0.76777162  0.42083305     0.36500
C1000       C  0.09730760  0.93377447  0.90698045     0.39700
N1001       N  0.47940312  0.80937049  0.55582852    -0.38300
N1002       N  0.55614134  0.87549748  0.50424099    -0.39900
N1003       N  0.97212488  0.68532638  0.90294532    -0.37700
N1004       N  0.03686803  0.75863243  0.84415518    -0.40100
N1005       N  0.00480469  0.89742590  0.88975995    -0.39800
N1006       N  0.09692704  0.96738652  0.90205969    -0.37500
N1007       N  0.20268224  0.80643089  0.41992250    -0.38500
N1008       N  0.11401752  0.73409873  0.42315173    -0.40200
C1009       C  0.96981621  0.22755591  0.49612829     0.80600
N1010       N  0.98473545  0.19387374  0.50840839    -0.77700
C1011       C  0.96696492  0.16967423  0.03302059     0.83000
N1012       N  0.93265360  0.17967227  0.04578413    -0.77700
C1013       C  0.91787684  0.21469765  0.03339610     0.83100
N1014       N  0.93693297  0.23768253  0.50892933    -0.79400
C1015       C  0.93167249  0.18404090  0.21535294     0.80600
N1016       N  0.94986332  0.15553926  0.23429593    -0.77700
C1017       C  0.94008156  0.14364927  0.26950015     0.83000
N1018       N  0.91079177  0.16090062  0.28702716    -0.77700
C1019       C  0.89203767  0.19000088  0.26789141     0.83100
N1020       N  0.90318236  0.20106473  0.23270100    -0.79400
C1021       C  0.89279972  0.45612891  0.46692307     0.80600
N1022       N  0.87191539  0.42853495  0.48434550    -0.77700
C1023       C  0.87981782  0.41531743  0.51982840     0.83000
N1024       N  0.90984625  0.42980841  0.53863945    -0.77700
C1025       C  0.93095262  0.45782141  0.52101974     0.83100
N1026       N  0.92216578  0.47037560  0.48568999    -0.79400
C1027       C  0.86241211  0.47138615  0.25856792     0.80600
N1028       N  0.84583888  0.43931409  0.27321925    -0.77700
C1029       C  0.86468913  0.41396502  0.29574896     0.83000
N1030       N  0.90115222  0.42075908  0.30354137    -0.77700
C1031       C  0.91719973  0.45434716  0.28956011     0.83100
N1032       N  0.89759772  0.47879691  0.26699151    -0.79400
O1033       O  0.99429216  0.46624948  0.52291205    -0.78200
C1034       C  0.54173582  0.04583299  0.43943028     0.82900
O1035       O  0.62268802  0.48287025  0.06087855    -0.79300
O1036       O  0.60724691  0.11226355  0.52213102    -0.80800
O1037       O  0.97427425  0.10509734  0.06299848    -0.80500
O1038       O  0.96059756  0.00672352  0.05728177    -0.79200
Zn1039     Zn  0.54002869  0.99761758  0.51264899     1.55700
O1040       O  0.51647168  0.12889580  0.52380071    -0.80600
Cd1041     Cd  0.99920587  0.04928684  0.07365162     1.59700
Cd1042     Cd  0.59138456  0.03241774  0.07779996     1.59600
O1043       O  0.51289793  0.04140292  0.13022535    -0.80600
O1044       O  0.54637700  0.04179622  0.54488569    -1.91100
Cd1045     Cd  0.55563977  0.08890923  0.51297139     1.59900
O1046       O  0.57312173  0.02805068  0.13316966    -0.80500
O1047       O  0.55045061  0.07767550  0.45569246    -0.79200
C1048       C  0.61477577  0.46124605  0.53263018     0.83400
C1049       C  0.96386887  0.47593524  0.53729316     0.83000
O1050       O  0.53627128  0.01426675  0.45815034    -0.78100
C1051       C  0.98640058  0.13238173  0.54136867     0.83800
O1052       O  0.58450441  0.46516345  0.51503293    -0.78200
C1053       C  0.54210259  0.03326592  0.14887499     0.83600
C1054       C  0.63239706  0.10510190  0.54632398     0.84300
O1055       O  0.62889366  0.07888302  0.07213263    -0.80600
O1056       O  0.56401315  0.44560918  0.31961220    -0.78200
C1057       C  0.53832229  0.04470265  0.39804451     0.82900
O1058       O  0.96970901  0.98023325  0.26348215    -0.79300
O1059       O  0.49264184  0.12078485  0.30369271    -0.80800
O1060       O  0.61466927  0.06924390  0.26981458    -0.80500
O1061       O  0.60694595  0.47311907  0.28321771    -0.79200
Zn1062     Zn  0.52650902  0.98937082  0.33062766     1.55700
O1063       O  0.58929080  0.11768878  0.30210021    -0.80600
Cd1064     Cd  0.57987654  0.02325291  0.26663172     1.59700
Cd1065     Cd  0.99437634  0.03375252  0.26118842     1.59600
O1066       O  0.56779582  0.01993047  0.20933793    -0.80600
O1067       O  0.53580072  0.03392816  0.29665951    -1.91100
Cd1068     Cd  0.53986645  0.08759215  0.32017642     1.59900
O1069       O  0.51019324  0.04038357  0.20603027    -0.80500
O1070       O  0.54138508  0.07654323  0.37858200    -0.79200
C1071       C  0.95606514  0.46527310  0.29318337     0.83400
C1072       C  0.59432119  0.44389604  0.30165410     0.83000
O1073       O  0.53273250  0.01124977  0.38295276    -0.78100
C1074       C  0.61531449  0.10416894  0.28188970     0.83800
O1075       O  0.97312086  0.46727317  0.32475077    -0.78200
C1076       C  0.53989924  0.03081504  0.19022818     0.84000
C1077       C  0.96306728  0.11203681  0.28562953     0.84300
O1078       O  0.95749760  0.07792166  0.27231393    -0.80600
C1079       C  0.64909083  0.39352146  0.46165213     0.80600
N1080       N  0.63077307  0.42133647  0.48031677    -0.77700
C1081       C  0.64019872  0.43261880  0.51574987     0.83000
N1082       N  0.66953175  0.41522094  0.53372677    -0.77700
C1083       C  0.68840211  0.38665942  0.51493053     0.83100
N1084       N  0.67752787  0.37618265  0.47955093    -0.79400
C1085       C  0.60525844  0.34849814  0.25842921     0.80600
N1086       N  0.59046134  0.38115216  0.27283848    -0.77700
C1087       C  0.61085747  0.40556047  0.29465104     0.83000
N1088       N  0.64718925  0.39732944  0.30176160    -0.77700
C1089       C  0.66159622  0.36343311  0.28774934     0.83100
N1090       N  0.64032907  0.33994721  0.26606545    -0.79400
C1091       C  0.72148331  0.10867281  0.50098408     0.80600
N1092       N  0.68782967  0.09777851  0.51246917    -0.77700
C1093       C  0.66925531  0.11946085  0.53757252     0.83000
N1094       N  0.68439970  0.15342124  0.55117389    -0.77700
C1095       C  0.71921584  0.16369444  0.54039615     0.83100
N1096       N  0.73723666  0.14130749  0.51523800    -0.79400
C1097       C  0.68863038  0.13249206  0.21637182     0.80600
N1098       N  0.65846417  0.11655689  0.23233306    -0.77700
C1099       C  0.64617655  0.12800495  0.26673549     0.83000
N1100       N  0.66531810  0.15610066  0.28639449    -0.77700
C1101       C  0.69640553  0.17174866  0.27032621     0.83100
N1102       N  0.70721806  0.15981626  0.23592081    -0.79400
O1103       O  0.76163696  0.27198524  0.46103447    -0.78200
C1104       C  0.73677331  0.20124953  0.54989822     0.82900
O1105       O  0.74138428  0.37416097  0.05584533    -0.79300
O1106       O  0.80137131  0.26513242  0.13382761    -0.80800
O1107       O  0.87184177  0.25789235  0.51933403    -0.80500
O1108       O  0.81886816  0.29290762  0.45427459    -0.79200
Zn1109     Zn  0.75114946  0.28056340  0.51686755     1.55700
O1110       O  0.86029538  0.21992767  0.06904107    -0.80600
Cd1111     Cd  0.83433745  0.29868992  0.50915683     1.59700
Cd1112     Cd  0.79060137  0.34453927  0.07304524     1.59600
O1113       O  0.86035698  0.35121748  0.51226550    -0.80600
O1114       O  0.79492253  0.29226334  0.54570039    -1.91100
Cd1115     Cd  0.80699189  0.24495815  0.07866575     1.59900
O1116       O  0.83486836  0.38355654  0.05950877    -0.80500
O1117       O  0.76818480  0.20088378  0.06633870    -0.79200
C1118       C  0.71767709  0.36181968  0.53168749     0.83400
C1119       C  0.78901105  0.28052977  0.44038881     0.83000
O1120       O  0.72369784  0.23233063  0.53495672    -0.78100
C1121       C  0.88095140  0.23025210  0.54166001     0.83800
O1122       O  0.71983628  0.32769866  0.51765997    -0.78200
C1123       C  0.85828398  0.38122369  0.53289726     0.84000
C1124       C  0.79532802  0.29820810  0.14945935     0.84300
O1125       O  0.79090940  0.33032523  0.13079882    -0.80600
O1126       O  0.70917412  0.32454441  0.26834113    -0.78200
C1127       C  0.79259992  0.29857660  0.19075448     0.82900
O1128       O  0.74242330  0.19858053  0.31149755    -0.79300
O1129       O  0.86251411  0.24987793  0.27015287    -0.80800
O1130       O  0.81385830  0.37705074  0.31731320    -0.80500
O1131       O  0.72079341  0.35826160  0.32019183    -0.79200
Zn1132     Zn  0.74588872  0.28442961  0.25944867     1.55700
O1133       O  0.85944372  0.34580573  0.28896132    -0.80600
Cd1134     Cd  0.77413199  0.33369049  0.32835326     1.59700
Cd1135     Cd  0.78902371  0.23432995  0.32385341     1.59600
O1136       O  0.77978754  0.31315268  0.38303125    -0.80600
O1137       O  0.78443480  0.28694458  0.29584214    -1.91100
Cd1138     Cd  0.83044953  0.29830608  0.26829347     1.59900
O1139       O  0.78966730  0.24792300  0.38152179    -0.80500
O1140       O  0.82056668  0.30746153  0.21070370    -0.79200
C1141       C  0.71845981  0.20409553  0.28539448     0.83400
C1142       C  0.69974462  0.34969492  0.29247190     0.83000
O1143       O  0.76258500  0.28797218  0.20570217    -0.78100
C1144       C  0.84609440  0.37651579  0.30334330     0.83800
O1145       O  0.71848257  0.23489449  0.26495649    -0.78200
C1146       C  0.78552438  0.28009258  0.39935463     0.84000
C1147       C  0.86288412  0.21523067  0.28392867     0.84300
O1148       O  0.83777181  0.20309741  0.30657606    -0.80600
C1149       C  0.81398758  0.01363699  0.17259631    -0.05100
C1150       C  0.79968022  0.04832810  0.18788606     0.09000
C1151       C  0.81066363  0.06010046  0.22466187    -0.02500
C1152       C  0.83243985  0.03522982  0.24716397    -0.00800
C1153       C  0.84259430  0.49839908  0.23343581    -0.04400
C1154       C  0.83485331  0.48816346  0.19568773     0.02600
C1155       C  0.76779808  0.06822421  0.16964169     0.09500
C1156       C  0.79837696  0.09688453  0.24035755     0.35400
C1157       C  0.84811650  0.45141777  0.18084744     0.38800
C1158       C  0.73307024  0.04998229  0.17252743    -0.04700
C1159       C  0.70202484  0.07337359  0.17776877     0.02400
C1160       C  0.70679008  0.11398543  0.18340138    -0.04300
C1161       C  0.73859479  0.13196493  0.16821591    -0.00600
C1162       C  0.76958224  0.10873395  0.16133786    -0.03100
C1163       C  0.72972919  0.00758085  0.17523344     0.36100
C1164       C  0.74069786  0.17426370  0.16411020     0.39700
C1165       C  0.66632270  0.05519315  0.18098478     0.38900
C1166       C  0.80434908  0.12672583  0.15147690     0.35800
C1167       C  0.80624255  0.00376304  0.13357365     0.36500
C1168       C  0.84336598  0.04668114  0.28508389     0.39700
N1169       N  0.63795601  0.04017306  0.18320967    -0.38300
N1170       N  0.72694330  0.47376152  0.17735504    -0.39900
N1171       N  0.74222672  0.20807496  0.16101705    -0.37700
N1172       N  0.83216025  0.14106196  0.14372510    -0.40100
N1173       N  0.78915328  0.12630927  0.25310428    -0.39800
N1174       N  0.85258772  0.05527142  0.31525410    -0.37500
N1175       N  0.85874118  0.42212019  0.16901532    -0.38500
N1176       N  0.80008730  0.49586107  0.10241361    -0.40200
C1177       C  0.77363400  0.02425490  0.96043651    -0.05100
C1178       C  0.78783371  0.04150000  0.42679800     0.09000
C1179       C  0.77492490  0.07863660  0.41473157    -0.02500
C1180       C  0.75224707  0.10048943  0.43861245    -0.00800
C1181       C  0.74118568  0.08450211  0.47372720    -0.04400
C1182       C  0.74999680  0.04557248  0.98346836     0.02600
C1183       C  0.82128203  0.02409568  0.40975395     0.09500
C1184       C  0.78626174  0.09516967  0.37868020     0.35400
C1185       C  0.73667837  0.02818434  0.01856287     0.38800
C1186       C  0.82067474  0.48438106  0.39903362    -0.04700
C1187       C  0.84943233  0.45980649  0.41143932     0.02400
C1188       C  0.87894543  0.47638614  0.43202095    -0.04300
C1189       C  0.88528552  0.01714885  0.42776608    -0.00600
C1190       C  0.85550296  0.04147822  0.41858088    -0.03100
C1191       C  0.78795316  0.46803181  0.38180998     0.36100
C1192       C  0.92056659  0.03446895  0.43704607     0.39700
C1193       C  0.84657451  0.41763531  0.40728888     0.38900
C1194       C  0.85887246  0.08349376  0.42388148     0.35800
C1195       C  0.78475723  0.98541932  0.97321391     0.36500
C1196       C  0.74063983  0.13960715  0.42735072     0.39700
N1197       N  0.84420694  0.38392787  0.40425227    -0.38300
N1198       N  0.76183838  0.45492839  0.36801937    -0.39900
N1199       N  0.94865545  0.04849120  0.44434762    -0.37700
N1200       N  0.86178956  0.11698512  0.42825251    -0.40100
N1201       N  0.79519051  0.10904630  0.35016159    -0.39800
N1202       N  0.73135209  0.17082125  0.41845922    -0.37500
N1203       N  0.72603954  0.01423710  0.04641906    -0.38500
N1204       N  0.79280795  0.95441663  0.98396664    -0.40200
C1205       C  0.47263722  0.26914080  0.17182915    -0.05100
C1206       C  0.50822103  0.25326195  0.16968773     0.09000
C1207       C  0.51180031  0.21313968  0.16097640    -0.02500
C1208       C  0.98170070  0.18780494  0.16720001    -0.00800
C1209       C  0.94898447  0.20327192  0.18158936    -0.04400
C1210       C  0.94255782  0.24342973  0.17497669     0.02600
C1211       C  0.53920169  0.27449492  0.18829711     0.09500
C1212       C  0.54729199  0.19756432  0.15129950     0.35400
C1213       C  0.90561784  0.25807329  0.17332779     0.38800
C1214       C  0.55224327  0.26072975  0.22393367    -0.04700
C1215       C  0.57665191  0.28381089  0.24508477     0.02400
C1216       C  0.58401825  0.32266433  0.23348397    -0.04300
C1217       C  0.57253165  0.33596269  0.19744131    -0.00600
C1218       C  0.55197811  0.31087615  0.17397054    -0.03100
C1219       C  0.53913859  0.22395766  0.24020861     0.36100
C1220       C  0.58233395  0.37513677  0.18431464     0.39700
C1221       C  0.59411438  0.26767338  0.27881597     0.38900
C1222       C  0.54450555  0.32236020  0.13517188     0.35800
C1223       C  0.46716699  0.31097131  0.17592562     0.36500
C1224       C  0.98496279  0.14600042  0.16224387     0.39700
N1225       N  0.60886684  0.25471923  0.30517635    -0.38300
N1226       N  0.52876019  0.19479688  0.25353540    -0.39900
N1227       N  0.58996352  0.40645455  0.17391047    -0.37700
N1228       N  0.03976345  0.33210348  0.10410762    -0.40100
N1229       N  0.57566524  0.18509545  0.14366779    -0.39800
N1230       N  0.98688617  0.11246959  0.15833788    -0.37500
N1231       N  0.87601194  0.26958776  0.17096711    -0.38500
N1232       N  0.46267676  0.34432404  0.17942716    -0.40200
C1233       C  0.60621874  0.31013144  0.91817100    -0.05100
C1234       C  0.57091140  0.32680243  0.41563375     0.09000
C1235       C  0.56804748  0.36732223  0.40745343    -0.02500
C1236       C  0.59895174  0.39164537  0.41311885    -0.00800
C1237       C  0.63140488  0.37503166  0.42790318    -0.04400
C1238       C  0.63696538  0.33487535  0.92196284     0.02600
C1239       C  0.53933301  0.30515735  0.43268184     0.09500
C1240       C  0.53282886  0.38399532  0.39758706     0.35400
C1241       C  0.67352064  0.31905688  0.92143699     0.38800
C1242       C  0.02835300  0.31511662  0.96981018    -0.04700
C1243       C  0.00341280  0.29089405  0.98928254     0.02400
C1244       C  0.99106845  0.25547371  0.47285199    -0.04300
C1245       C  0.49989476  0.24699785  0.43511737    -0.00600
C1246       C  0.52342825  0.27237315  0.41474085    -0.03100
C1247       C  0.04387927  0.34894574  0.98883373     0.36100
C1248       C  0.48423039  0.21266433  0.41714864     0.39700
C1249       C  0.99068442  0.30164160  0.02651465     0.38900
C1250       C  0.53117303  0.26480114  0.37547126     0.35800
C1251       C  0.61052266  0.26794371  0.92108363     0.36500
C1252       C  0.59706213  0.43363358  0.40709844     0.39700
N1253       N  0.97936056  0.30968495  0.05585671    -0.38300
N1254       N  0.05606744  0.37581629  0.00429982    -0.39900
N1255       N  0.47158498  0.18542856  0.40265810    -0.37700
N1256       N  0.53657801  0.25854336  0.34396581    -0.40100
N1257       N  0.50464534  0.39718100  0.38958379    -0.39800
N1258       N  0.59664743  0.46725733  0.40226802    -0.37500
N1259       N  0.70278366  0.30650538  0.92001745    -0.38500
N1260       N  0.61408642  0.23427354  0.92348635    -0.40200
C1261       C  0.96995229  0.22773638  0.99625988     0.80600
N1262       N  0.98485278  0.19402829  0.00850270    -0.77700
C1263       C  0.96687870  0.16955476  0.53298214     0.83000
N1264       N  0.93258205  0.17956873  0.54577624    -0.77700
C1265       C  0.91778929  0.21457434  0.53335397     0.83100
N1266       N  0.93705058  0.23784401  0.00903038    -0.79400
C1267       C  0.93162007  0.18402466  0.71529920     0.80600
N1268       N  0.94982988  0.15554156  0.73425021    -0.77700
C1269       C  0.94006605  0.14366973  0.76946665     0.83000
N1270       N  0.91077930  0.16092348  0.78699707    -0.77700
C1271       C  0.89200685  0.19000326  0.76785195     0.83100
N1272       N  0.90312982  0.20104483  0.73264928    -0.79400
C1273       C  0.89281909  0.45617052  0.96686090     0.80600
N1274       N  0.87193033  0.42856898  0.98426961    -0.77700
C1275       C  0.87980271  0.41537197  0.01976874     0.83000
N1276       N  0.90980482  0.42988955  0.03860635    -0.77700
C1277       C  0.93091638  0.45790714  0.02099979     0.83100
N1278       N  0.92215802  0.47044160  0.98565688    -0.79400
C1279       C  0.86240573  0.47145922  0.75866139     0.80600
N1280       N  0.84584894  0.43935392  0.77326238    -0.77700
C1281       C  0.86471009  0.41397574  0.79574899     0.83000
N1282       N  0.90117523  0.42076550  0.80353570    -0.77700
C1283       C  0.91720839  0.45438439  0.78960333     0.83100
N1284       N  0.89759238  0.47886705  0.76708168    -0.79400
O1285       O  0.99426284  0.46629342  0.02294272    -0.78200
C1286       C  0.54175072  0.04583013  0.93943255     0.82900
O1287       O  0.62268748  0.48280725  0.56084448    -0.79300
O1288       O  0.60728711  0.11225819  0.02209892    -0.80800
O1289       O  0.97422781  0.10499971  0.56299731    -0.80500
O1290       O  0.96062979  0.00662203  0.55731580    -0.79200
Zn1291     Zn  0.54002452  0.99763476  0.01267286     1.55700
O1292       O  0.51651890  0.12896633  0.02378573    -0.80600
Cd1293     Cd  0.99921018  0.04921836  0.57365847     1.59700
Cd1294     Cd  0.59139026  0.03235688  0.57778863     1.59600
O1295       O  0.51291319  0.04136503  0.63022610    -0.80600
O1296       O  0.54637484  0.04183867  0.04488648    -1.91100
Cd1297     Cd  0.55565843  0.08893793  0.01295777     1.59900
O1298       O  0.57313448  0.02799561  0.63316763    -0.80500
O1299       O  0.55045567  0.07767872  0.95568868    -0.79200
C1300       C  0.61478262  0.46128191  0.03268263     0.83400
C1301       C  0.96383211  0.47601604  0.03728674     0.83000
O1302       O  0.53628870  0.01426547  0.95815873    -0.78100
C1303       C  0.98645828  0.13247421  0.04136937     0.83800
O1304       O  0.58450698  0.46516987  0.01508355    -0.78200
C1305       C  0.54211697  0.03322521  0.64887433     0.83600
C1306       C  0.63242101  0.10512738  0.04631930     0.84300
O1307       O  0.62889394  0.07882094  0.57210649    -0.80600
O1308       O  0.56402989  0.44564964  0.81956189    -0.78200
C1309       C  0.53833853  0.04469923  0.89804604     0.82900
O1310       O  0.96970736  0.98025641  0.76348897    -0.79300
O1311       O  0.49261872  0.12081537  0.80368971    -0.80800
O1312       O  0.61461383  0.06931640  0.76976705    -0.80500
O1313       O  0.60700111  0.47321507  0.78325693    -0.79200
Zn1314     Zn  0.52653171  0.98939664  0.83061720     1.55700
O1315       O  0.58926945  0.11774089  0.80210585    -0.80600
Cd1316     Cd  0.57987109  0.02329234  0.76663151     1.59700
Cd1317     Cd  0.99438080  0.03377519  0.76117758     1.59600
O1318       O  0.56779462  0.01989170  0.70934448    -0.80600
O1319       O  0.53579678  0.03396454  0.79665796    -1.91100
Cd1320     Cd  0.53984955  0.08762682  0.82018121     1.59900
O1321       O  0.51021000  0.04039415  0.70602255    -0.80500
O1322       O  0.54137090  0.07654709  0.87858699    -0.79200
C1323       C  0.95607805  0.46529748  0.79319884     0.83400
C1324       C  0.59435763  0.44396527  0.80163724     0.83000
O1325       O  0.53277378  0.01124368  0.88295111    -0.78100
C1326       C  0.61527251  0.10423276  0.78185976     0.83800
O1327       O  0.97314796  0.46729806  0.82475765    -0.78200
C1328       C  0.53990965  0.03079229  0.69022730     0.84000
C1329       C  0.96305831  0.11206431  0.78560174     0.84300
O1330       O  0.95750540  0.07795166  0.77227404    -0.80600
C1331       C  0.64921952  0.39365659  0.96168100     0.80600
N1332       N  0.63086352  0.42144028  0.98034913    -0.77700
C1333       C  0.64023511  0.43267852  0.01581030     0.83000
N1334       N  0.66954758  0.41526424  0.03381296    -0.77700
C1335       C  0.68845430  0.38673361  0.01501033     0.83100
N1336       N  0.67763657  0.37630619  0.97960131    -0.79400
C1337       C  0.60527414  0.34862024  0.75831255     0.80600
N1338       N  0.59048643  0.38126051  0.77275688    -0.77700
C1339       C  0.61089020  0.40564145  0.79458865     0.83000
N1340       N  0.64721800  0.39739244  0.80169575    -0.77700
C1341       C  0.66161663  0.36350792  0.78765069     0.83100
N1342       N  0.64034402  0.34005159  0.76593978    -0.79400
C1343       C  0.72153397  0.10870177  0.00102109     0.80600
N1344       N  0.68787229  0.09780773  0.01248473    -0.77700
C1345       C  0.66928780  0.11948451  0.03758589     0.83000
N1346       N  0.68443087  0.15344016  0.05120346    -0.77700
C1347       C  0.71925424  0.16371285  0.04044585     0.83100
N1348       N  0.73728339  0.14132973  0.01529224    -0.79400
C1349       C  0.68861115  0.13248985  0.71635152     0.80600
N1350       N  0.65841893  0.11660079  0.73229996    -0.77700
C1351       C  0.64613539  0.12806164  0.76669946     0.83000
N1352       N  0.66530082  0.15613351  0.78636320    -0.77700
C1353       C  0.69641120  0.17174038  0.77030708     0.83100
N1354       N  0.70722636  0.15978905  0.73590726    -0.79400
O1355       O  0.76161649  0.27202707  0.96104637    -0.78200
C1356       C  0.73680852  0.20127298  0.04994566     0.82900
O1357       O  0.74134165  0.37412750  0.55576505    -0.79300
O1358       O  0.80130070  0.26511329  0.63379720    -0.80800
O1359       O  0.87189741  0.25796642  0.01931875    -0.80500
O1360       O  0.81885713  0.29290022  0.95425545    -0.79200
Zn1361     Zn  0.75115814  0.28059700  0.01690279     1.55700
O1362       O  0.86023683  0.21985282  0.56905016    -0.80600
Cd1363     Cd  0.83434011  0.29871918  0.00913180     1.59700
Cd1364     Cd  0.79055081  0.34451568  0.57300760     1.59600
O1365       O  0.86030349  0.35128336  0.01218803    -0.80600
O1366       O  0.79494974  0.29229259  0.04571432    -1.91100
Cd1367     Cd  0.80694379  0.24492235  0.57865067     1.59900
O1368       O  0.83482816  0.38352720  0.55950802    -0.80500
O1369       O  0.76813944  0.20085572  0.56630952    -0.79200
C1370       C  0.71770723  0.36186685  0.03177440     0.83400
C1371       C  0.78898587  0.28054778  0.94038253     0.83000
O1372       O  0.72372157  0.23235340  0.03501137    -0.78100
C1373       C  0.88101623  0.23034039  0.04165941     0.83800
O1374       O  0.71985184  0.32774770  0.01773590    -0.78200
C1375       C  0.85826775  0.38127688  0.03284200     0.84000
C1376       C  0.79525092  0.29819163  0.64942030     0.84300
O1377       O  0.79083087  0.33030603  0.63075634    -0.80600
O1378       O  0.70915958  0.32453190  0.76831716    -0.78200
C1379       C  0.79253707  0.29856840  0.69071236     0.82900
O1380       O  0.74243305  0.19858246  0.81146822    -0.79300
O1381       O  0.86248061  0.24988018  0.77008976    -0.80800
O1382       O  0.81389305  0.37704366  0.81731305    -0.80500
O1383       O  0.72081029  0.35833224  0.82010849    -0.79200
Zn1384     Zn  0.74586648  0.28442298  0.75942493     1.55700
O1385       O  0.85943452  0.34582696  0.78885625    -0.80600
Cd1386     Cd  0.77412905  0.33371225  0.82832175     1.59700
Cd1387     Cd  0.78901700  0.23435241  0.82383334     1.59600
O1388       O  0.77974440  0.31316812  0.88301456    -0.80600
O1389       O  0.78442365  0.28696149  0.79580917    -1.91100
Cd1390     Cd  0.83042469  0.29831531  0.76822917     1.59900
O1391       O  0.78964933  0.24794392  0.88150737    -0.80500
O1392       O  0.82051397  0.30745171  0.71064587    -0.79200
C1393       C  0.71846469  0.20408943  0.78536853     0.83400
C1394       C  0.69975013  0.34973191  0.79240631     0.83000
O1395       O  0.76252942  0.28796579  0.70567379    -0.78100
C1396       C  0.84611347  0.37651803  0.80330405     0.83800
O1397       O  0.71847212  0.23488889  0.76493375    -0.78200
C1398       C  0.78548803  0.28010972  0.89934251     0.84000
C1399       C  0.86286160  0.21524248  0.78388924     0.84300
O1400       O  0.83776579  0.20312336  0.80656208    -0.80600
C1401       C  0.81392026  0.01355082  0.67266255    -0.05100
C1402       C  0.79965181  0.04829031  0.68789245     0.09000
C1403       C  0.81070149  0.06015340  0.72462171    -0.02500
C1404       C  0.83248835  0.03532058  0.74715266    -0.00800
C1405       C  0.84259628  0.49844562  0.73349655    -0.04400
C1406       C  0.83480625  0.48812525  0.69578129     0.02600
C1407       C  0.76775560  0.06816235  0.66964687     0.09500
C1408       C  0.79848033  0.09699853  0.74024301     0.35400
C1409       C  0.84805072  0.45134434  0.68100038     0.38800
C1410       C  0.73302760  0.04992679  0.67257722    -0.04700
C1411       C  0.70198742  0.07332892  0.67780437     0.02400
C1412       C  0.70675910  0.11394747  0.68339317    -0.04300
C1413       C  0.73855910  0.13190686  0.66817690    -0.00600
C1414       C  0.76953623  0.10866193  0.66129148    -0.03100
C1415       C  0.72967929  0.00752893  0.67534704     0.36100
C1416       C  0.74067476  0.17420312  0.66405469     0.39700
C1417       C  0.66628845  0.05515142  0.68106741     0.38900
C1418       C  0.80430112  0.12663820  0.65139599     0.35800
C1419       C  0.80611144  0.00357373  0.63367801     0.36500
C1420       C  0.84346555  0.04685723  0.78503246     0.39700
N1421       N  0.63792668  0.04012847  0.68333265    -0.38300
N1422       N  0.72688036  0.47371358  0.67751837    -0.39900
N1423       N  0.74221661  0.20801267  0.66095035    -0.37700
N1424       N  0.83211437  0.14095856  0.64362566    -0.40100
N1425       N  0.78931512  0.12647499  0.75292654    -0.39800
N1426       N  0.85272274  0.05552151  0.81517118    -0.37500
N1427       N  0.85866628  0.42202014  0.66921928    -0.38500
N1428       N  0.79990192  0.49558160  0.60255141    -0.40200
C1429       C  0.77358636  0.02420003  0.46045730    -0.05100
C1430       C  0.78790439  0.04158725  0.92680255     0.09000
C1431       C  0.77502026  0.07874594  0.91477157    -0.02500
C1432       C  0.75233066  0.10057593  0.93865991    -0.00800
C1433       C  0.74124365  0.08455239  0.97375163    -0.04400
C1434       C  0.74994900  0.04553272  0.48347554     0.02600
C1435       C  0.82134445  0.02417713  0.90974655     0.09500
C1436       C  0.78639707  0.09532575  0.87875242     0.35400
C1437       C  0.73663733  0.02817138  0.51858496     0.38800
C1438       C  0.82071512  0.48447484  0.89898579    -0.04700
C1439       C  0.84946239  0.45987164  0.91136558     0.02400
C1440       C  0.87899430  0.47642017  0.93194031    -0.04300
C1441       C  0.88536009  0.01717583  0.92768625    -0.00600
C1442       C  0.85557796  0.04153253  0.91857531    -0.03100
C1443       C  0.78798225  0.46816246  0.88175227     0.36100
C1444       C  0.92067154  0.03445753  0.93690650     0.39700
C1445       C  0.84657784  0.41770529  0.90719627     0.38900
C1446       C  0.85896621  0.08353270  0.92396840     0.35800
C1447       C  0.78473627  0.98538724  0.47327513     0.36500
C1448       C  0.74073879  0.13970872  0.92743053     0.39700
N1449       N  0.84418848  0.38400128  0.90414318    -0.38300
N1450       N  0.76185739  0.45509127  0.86795354    -0.39900
N1451       N  0.94878523  0.04844891  0.94415929    -0.37700
N1452       N  0.86189883  0.11701009  0.92842058    -0.40100
N1453       N  0.79536201  0.10924015  0.85026263    -0.39800
N1454       N  0.73146314  0.17093457  0.91856502    -0.37500
N1455       N  0.72600067  0.01424517  0.54645153    -0.38500
N1456       N  0.79280935  0.95440436  0.48406365    -0.40200
C1457       C  0.47251121  0.26916506  0.67185810    -0.05100
C1458       C  0.50811481  0.25333185  0.66972708     0.09000
C1459       C  0.51174267  0.21321685  0.66099713    -0.02500
C1460       C  0.98166161  0.18784243  0.66717033    -0.00800
C1461       C  0.94891498  0.20326212  0.68153031    -0.04400
C1462       C  0.94245440  0.24341390  0.67492652     0.02600
C1463       C  0.53908518  0.27461397  0.68830669     0.09500
C1464       C  0.54725817  0.19768501  0.65134618     0.35400
C1465       C  0.90549882  0.25800819  0.67322305     0.38800
C1466       C  0.55219981  0.26084889  0.72391471    -0.04700
C1467       C  0.57665182  0.28392978  0.74501416     0.02400
C1468       C  0.58399768  0.32278409  0.73340018    -0.04300
C1469       C  0.57241588  0.33609501  0.69739512    -0.00600
C1470       C  0.55181104  0.31101239  0.67396752    -0.03100
C1471       C  0.53912977  0.22407401  0.74021516     0.36100
C1472       C  0.58217463  0.37527835  0.68425739     0.39700
C1473       C  0.59417823  0.26779175  0.77870955     0.38900
C1474       C  0.54424061  0.32252746  0.63519813     0.35800
C1475       C  0.46698870  0.31097855  0.67602565     0.36500
C1476       C  0.98497140  0.14604414  0.66219589     0.39700
N1477       N  0.60898397  0.25484082  0.80503932    -0.38300
N1478       N  0.52877845  0.19491116  0.75356058    -0.39900
N1479       N  0.58976657  0.40660132  0.67383786    -0.37700
N1480       N  0.03942910  0.33232325  0.60416067    -0.40100
N1481       N  0.57565020  0.18524823  0.64373877    -0.39800
N1482       N  0.98693900  0.11251864  0.65827168    -0.37500
N1483       N  0.87588179  0.26948163  0.67081857    -0.38500
N1484       N  0.46245263  0.34431600  0.67958835    -0.40200
C1485       C  0.60610803  0.30997064  0.41801932    -0.05100
C1486       C  0.57103494  0.32699737  0.91578295     0.09000
C1487       C  0.56819811  0.36751000  0.90754514    -0.02500
C1488       C  0.59913851  0.39180563  0.91310802    -0.00800
C1489       C  0.63158066  0.37518480  0.92790206    -0.04400
C1490       C  0.63683157  0.33473718  0.42190192     0.02600
C1491       C  0.53943169  0.30537128  0.93280074     0.09500
C1492       C  0.53298094  0.38421590  0.89772906     0.35400
C1493       C  0.67340492  0.31896028  0.42135707     0.38800
C1494       C  0.02832243  0.31486041  0.46972590    -0.04700
C1495       C  0.00337780  0.29064681  0.48920037     0.02400
C1496       C  0.99120272  0.25565571  0.97298036    -0.04300
C1497       C  0.50011728  0.24712188  0.93527886    -0.00600
C1498       C  0.52360645  0.27252981  0.91488810    -0.03100
C1499       C  0.04391241  0.34864219  0.48877391     0.36100
C1500       C  0.48461614  0.21267562  0.91736282     0.39700
C1501       C  0.99071868  0.30134124  0.52647187     0.38900
C1502       C  0.53140043  0.26493203  0.87563305     0.35800
C1503       C  0.61043932  0.26778142  0.42082422     0.36500
C1504       C  0.59729914  0.43378398  0.90699447     0.39700
N1505       N  0.97942742  0.30932055  0.55584382    -0.38300
N1506       N  0.05614965  0.37547682  0.50425787    -0.39900
N1507       N  0.47211722  0.18534070  0.90291308    -0.37700
N1508       N  0.53685329  0.25866819  0.84413791    -0.40100
N1509       N  0.50479640  0.39743124  0.88977839    -0.39800
N1510       N  0.59691897  0.46739641  0.90207684    -0.37500
N1511       N  0.70268408  0.30645052  0.41991796    -0.38500
N1512       N  0.61402358  0.23410846  0.42313728    -0.40200
C1513       C  0.96982117  0.72756820  0.49614735     0.80600
N1514       N  0.98474190  0.69388536  0.50842385    -0.77700
C1515       C  0.96697325  0.66968378  0.03303562     0.83000
N1516       N  0.93266159  0.67967874  0.04580025    -0.77700
C1517       C  0.91788328  0.71470452  0.03341577     0.83100
N1518       N  0.93693801  0.73769234  0.50895016    -0.79400
C1519       C  0.93167409  0.68403442  0.21536365     0.80600
N1520       N  0.94986658  0.65553443  0.23430708    -0.77700
C1521       C  0.94008702  0.64364610  0.26951228     0.83000
N1522       N  0.91079775  0.66089779  0.28704024    -0.77700
C1523       C  0.89204227  0.68999708  0.26790404     0.83100
N1524       N  0.90318480  0.70105881  0.23271248    -0.79400
C1525       C  0.89278668  0.95611363  0.46691736     0.80600
N1526       N  0.87190407  0.92852155  0.48434431    -0.77700
C1527       C  0.87980868  0.91530869  0.51982807     0.83000
N1528       N  0.90983808  0.92980203  0.53863555    -0.77700
C1529       C  0.93094347  0.95781283  0.52101122     0.83100
N1530       N  0.92215406  0.97036292  0.48568055    -0.79400
C1531       C  0.86240083  0.97138761  0.25858890     0.80600
N1532       N  0.84583090  0.93931317  0.27323903    -0.77700
C1533       C  0.86468503  0.91396255  0.29576339     0.83000
N1534       N  0.90114900  0.92075723  0.30355117    -0.77700
C1535       C  0.91719322  0.95434797  0.28957160     0.83100
N1536       N  0.89758716  0.97879931  0.26700842    -0.79400
O1537       O  0.99428264  0.96624865  0.52289411    -0.78200
C1538       C  0.54173585  0.54582980  0.43943589     0.82900
O1539       O  0.62267611  0.98285539  0.06087484    -0.79300
O1540       O  0.60724917  0.61226216  0.52212279    -0.80800
O1541       O  0.97428532  0.60510694  0.06301114    -0.80500
O1542       O  0.96060549  0.50673478  0.05728738    -0.79200
Zn1543     Zn  0.54003431  0.49762217  0.51265947     1.55700
O1544       O  0.51647595  0.62890278  0.52380508    -0.80600
Cd1545     Cd  0.99921491  0.54929519  0.07365928     1.59700
Cd1546     Cd  0.59139314  0.53243019  0.07780473     1.59600
O1547       O  0.51290826  0.54140753  0.13023227    -0.80600
O1548       O  0.54638339  0.54180364  0.54489212    -1.91100
Cd1549     Cd  0.55564058  0.58891290  0.51297254     1.59900
O1550       O  0.57313305  0.52806082  0.13317559    -0.80500
O1551       O  0.55044803  0.57767421  0.45569581    -0.79200
C1552       C  0.61476667  0.96123431  0.53262310     0.83400
C1553       C  0.96386047  0.97592883  0.53728138     0.83000
O1554       O  0.53627360  0.51426445  0.45815821    -0.78100
C1555       C  0.98640872  0.63239000  0.54137823     0.83800
O1556       O  0.58449754  0.96515485  0.51502212    -0.78200
C1557       C  0.54211355  0.53327236  0.14888139     0.83600
C1558       C  0.63239977  0.60510842  0.54631712     0.84300
O1559       O  0.62889745  0.57889914  0.07213410    -0.80600
O1560       O  0.56401359  0.94561615  0.31960723    -0.78200
C1561       C  0.53832346  0.54469745  0.39805013     0.82900
O1562       O  0.96971983  0.48023191  0.26347968    -0.79300
O1563       O  0.49264951  0.62078168  0.30370225    -0.80800
O1564       O  0.61467952  0.56923333  0.26982354    -0.80500
O1565       O  0.60694526  0.97312809  0.28321293    -0.79200
Zn1566     Zn  0.52651069  0.48936662  0.33063221     1.55700
O1567       O  0.58929940  0.61768110  0.30210420    -0.80600
Cd1568     Cd  0.57988278  0.52324667  0.26663847     1.59700
Cd1569     Cd  0.99438456  0.53375239  0.26119241     1.59600
O1570       O  0.56780436  0.51992860  0.20934400    -0.80600
O1571       O  0.53580736  0.53392421  0.29666567    -1.91100
Cd1572     Cd  0.53987432  0.58758735  0.32018235     1.59900
O1573       O  0.51020447  0.54039014  0.20603670    -0.80500
O1574       O  0.54139157  0.57653704  0.37858706    -0.79200
C1575       C  0.95605921  0.96527434  0.29318830     0.83400
C1576       C  0.59432218  0.94390455  0.30164997     0.83000
O1577       O  0.53273050  0.51124478  0.38295890    -0.78100
C1578       C  0.61532399  0.60415930  0.28189602     0.83800
O1579       O  0.97311952  0.96727534  0.32475305    -0.78200
C1580       C  0.53990964  0.53081883  0.19023444     0.84000
C1581       C  0.96307377  0.61203354  0.28564012     0.84300
O1582       O  0.95750436  0.57791894  0.27232305    -0.80600
C1583       C  0.64909044  0.89351093  0.46164769     0.80600
N1584       N  0.63076934  0.92132461  0.48031079    -0.77700
C1585       C  0.64019106  0.93260682  0.51574506     0.83000
N1586       N  0.66952342  0.91521032  0.53372453    -0.77700
C1587       C  0.68839716  0.88665015  0.51493006     0.83100
N1588       N  0.67752678  0.87617327  0.47954911    -0.79400
C1589       C  0.60525923  0.84850316  0.25843197     0.80600
N1590       N  0.59046331  0.88115949  0.27283739    -0.77700
C1591       C  0.61085966  0.90556902  0.29464818     0.83000
N1592       N  0.64719081  0.89733637  0.30176189    -0.77700
C1593       C  0.66159657  0.86343723  0.28775365     0.83100
N1594       N  0.64032903  0.83995079  0.26607082    -0.79400
C1595       C  0.72147809  0.60868856  0.50096072     0.80600
N1596       N  0.68782435  0.59779375  0.51244551    -0.77700
C1597       C  0.66925594  0.61946758  0.53756062     0.83000
N1598       N  0.68440585  0.65341913  0.55117413    -0.77700
C1599       C  0.71922091  0.66369303  0.54039535     0.83100
N1600       N  0.73723677  0.64131483  0.51522616    -0.79400
C1601       C  0.68863927  0.63248205  0.21637665     0.80600
N1602       N  0.65847406  0.61654538  0.23233884    -0.77700
C1603       C  0.64618591  0.62799432  0.26674086     0.83000
N1604       N  0.66532567  0.65609208  0.28639842    -0.77700
C1605       C  0.69641208  0.67174125  0.27032960     0.83100
N1606       N  0.70722556  0.65980821  0.23592466    -0.79400
O1607       O  0.76163312  0.77197714  0.46104269    -0.78200
C1608       C  0.73677789  0.70124510  0.54990419     0.82900
O1609       O  0.74137860  0.87415458  0.05584852    -0.79300
O1610       O  0.80136877  0.76512806  0.13383581    -0.80800
O1611       O  0.87184209  0.75788863  0.51934592    -0.80500
O1612       O  0.81886621  0.79289241  0.45428205    -0.79200
Zn1613     Zn  0.75114803  0.78055741  0.51687572     1.55700
O1614       O  0.86029924  0.71992837  0.06905706    -0.80600
Cd1615     Cd  0.83433384  0.79868011  0.50916390     1.59700
Cd1616     Cd  0.79059591  0.84453331  0.07305146     1.59600
O1617       O  0.86034885  0.85120896  0.51226924    -0.80600
O1618       O  0.79492022  0.79225715  0.54570831    -1.91100
Cd1619     Cd  0.80699270  0.74495369  0.07867504     1.59900
O1620       O  0.83486305  0.88354918  0.05951360    -0.80500
O1621       O  0.76819021  0.70087749  0.06634267    -0.79200
C1622       C  0.71767194  0.86181172  0.53169009     0.83400
C1623       C  0.78900776  0.78051812  0.44039665     0.83000
O1624       O  0.72369946  0.73232774  0.53496911    -0.78100
C1625       C  0.88095484  0.73025276  0.54167542     0.83800
O1626       O  0.71983240  0.82769017  0.51766445    -0.78200
C1627       C  0.85827678  0.88121553  0.53290046     0.84000
C1628       C  0.79532448  0.79820378  0.14946687     0.84300
O1629       O  0.79090421  0.83032034  0.13080569    -0.80600
O1630       O  0.70917235  0.82454180  0.26835107    -0.78200
C1631       C  0.79259774  0.79857264  0.19076202     0.82900
O1632       O  0.74242793  0.69857465  0.31150067    -0.79300
O1633       O  0.86251802  0.74987437  0.27016434    -0.80800
O1634       O  0.81385796  0.87704356  0.31732821    -0.80500
O1635       O  0.72079307  0.85826256  0.32019888    -0.79200
Zn1636     Zn  0.74588707  0.78442684  0.25945690     1.55700
O1637       O  0.85944106  0.84580432  0.28896602    -0.80600
Cd1638     Cd  0.77412955  0.83368477  0.32836313     1.59700
Cd1639     Cd  0.78902537  0.73432533  0.32385969     1.59600
O1640       O  0.77978151  0.81314294  0.38304053    -0.80600
O1641       O  0.78443456  0.78694052  0.29584961    -1.91100
Cd1642     Cd  0.83045004  0.79830095  0.26830091     1.59900
O1643       O  0.78966670  0.74791442  0.38152834    -0.80500
O1644       O  0.82056685  0.80745149  0.21071040    -0.79200
C1645       C  0.71846401  0.70408929  0.28539812     0.83400
C1646       C  0.69974401  0.84969558  0.29247926     0.83000
O1647       O  0.76258173  0.78797327  0.20571042    -0.78100
C1648       C  0.84609259  0.87651147  0.30335461     0.83800
O1649       O  0.71848364  0.73488958  0.26496195    -0.78200
C1650       C  0.78552052  0.78008250  0.39936254     0.84000
C1651       C  0.86288827  0.71522710  0.28394051     0.84300
O1652       O  0.83777471  0.70309340  0.30658596    -0.80600
C1653       C  0.81399450  0.51363150  0.17257584    -0.05100
C1654       C  0.79969012  0.54832476  0.18786455     0.09000
C1655       C  0.81068129  0.56010154  0.22463680    -0.02500
C1656       C  0.83245999  0.53523245  0.24713781    -0.00800
C1657       C  0.84257992  0.99839968  0.23345883    -0.04400
C1658       C  0.83484368  0.98816725  0.19570889     0.02600
C1659       C  0.76780454  0.56821948  0.16962456     0.09500
C1660       C  0.79839996  0.59688850  0.24033106     0.35400
C1661       C  0.84810761  0.95142225  0.18086768     0.38800
C1662       C  0.73307765  0.54997628  0.17251593    -0.04700
C1663       C  0.70203300  0.57336599  0.17776805     0.02400
C1664       C  0.70679839  0.61397726  0.18340455    -0.04300
C1665       C  0.73859975  0.63195966  0.16821440    -0.00600
C1666       C  0.76958544  0.60873006  0.16132375    -0.03100
C1667       C  0.72973753  0.50757440  0.17521652     0.36100
C1668       C  0.74070216  0.67425907  0.16411496     0.39700
C1669       C  0.66633200  0.55518394  0.18098921     0.38900
C1670       C  0.80434951  0.62672388  0.15145567     0.35800
C1671       C  0.80624355  0.50375341  0.13355530     0.36500
C1672       C  0.84339415  0.54668933  0.28505380     0.39700
N1673       N  0.63796628  0.54016251  0.18321774    -0.38300
N1674       N  0.72693489  0.97376822  0.17737647    -0.39900
N1675       N  0.74223053  0.70807080  0.16102719    -0.37700
N1676       N  0.83215863  0.64106165  0.14369870    -0.40100
N1677       N  0.78918096  0.62631538  0.25307689    -0.39800
N1678       N  0.85262161  0.55528552  0.31522064    -0.37500
N1679       N  0.85873211  0.92212493  0.16903486    -0.38500
N1680       N  0.80009150  0.99587426  0.10243002    -0.40200
C1681       C  0.77363714  0.52427573  0.96042081    -0.05100
C1682       C  0.78784876  0.54152316  0.42678984     0.09000
C1683       C  0.77494424  0.57866112  0.41472180    -0.02500
C1684       C  0.75225519  0.60051009  0.43859485    -0.00800
C1685       C  0.74118163  0.58451889  0.47370390    -0.04400
C1686       C  0.74999041  0.54559009  0.98344464     0.02600
C1687       C  0.82130227  0.52411919  0.40975648     0.09500
C1688       C  0.78630113  0.59520171  0.37868013     0.35400
C1689       C  0.73666292  0.52819953  0.01853447     0.38800
C1690       C  0.82065273  0.98435643  0.39903563    -0.04700
C1691       C  0.84941272  0.95978359  0.41143853     0.02400
C1692       C  0.87892861  0.97636594  0.43201413    -0.04300
C1693       C  0.88530273  0.51716972  0.42777931    -0.00600
C1694       C  0.85552106  0.54150039  0.41859497    -0.03100
C1695       C  0.78792914  0.96800594  0.38181724     0.36100
C1696       C  0.92058261  0.53448903  0.43706602     0.39700
C1697       C  0.84655546  0.91761203  0.40729150     0.38900
C1698       C  0.85888792  0.58351400  0.42391145     0.35800
C1699       C  0.78476128  0.48544162  0.97320224     0.36500
C1700       C  0.74065025  0.63962824  0.42733212     0.39700
N1701       N  0.84418869  0.88390426  0.40425747    -0.38300
N1702       N  0.76181293  0.95490221  0.36802990    -0.39900
N1703       N  0.94867006  0.54851137  0.44437282    -0.37700
N1704       N  0.86180282  0.61700338  0.42829644    -0.40100
N1705       N  0.79524833  0.60908388  0.35017024    -0.39800
N1706       N  0.73136410  0.67084255  0.41843927    -0.37500
N1707       N  0.72601740  0.51425084  0.04638720    -0.38500
N1708       N  0.79281384  0.45444067  0.98395792    -0.40200
C1709       C  0.47263179  0.76913384  0.17184506    -0.05100
C1710       C  0.50821698  0.75325760  0.16970536     0.09000
C1711       C  0.51179970  0.71313605  0.16099253    -0.02500
C1712       C  0.98170223  0.68780021  0.16721184    -0.00800
C1713       C  0.94898328  0.70326357  0.18159794    -0.04400
C1714       C  0.94255325  0.74342024  0.17498405     0.02600
C1715       C  0.53919733  0.77449430  0.18831118     0.09500
C1716       C  0.54729345  0.69756336  0.15131921     0.35400
C1717       C  0.90561166  0.75805863  0.17332948     0.38800
C1718       C  0.55224653  0.76072945  0.22394487    -0.04700
C1719       C  0.57665551  0.78381336  0.24509268     0.02400
C1720       C  0.58401789  0.82266717  0.23349003    -0.04300
C1721       C  0.57252546  0.83596421  0.19744885    -0.00600
C1722       C  0.55196853  0.81087659  0.17398240    -0.03100
C1723       C  0.53915158  0.72395292  0.24021908     0.36100
C1724       C  0.58232700  0.87513713  0.18431850     0.39700
C1725       C  0.59412312  0.76767801  0.27882210     0.38900
C1726       C  0.54448677  0.82236023  0.13518544     0.35800
C1727       C  0.46715777  0.81096312  0.17594653     0.36500
C1728       C  0.98496946  0.64599600  0.16225819     0.39700
N1729       N  0.60887995  0.75472587  0.30518072    -0.38300
N1730       N  0.52878181  0.69478791  0.25354430    -0.39900
N1731       N  0.58995677  0.90645383  0.17391112    -0.37700
N1732       N  0.03973375  0.83210674  0.10412307    -0.40100
N1733       N  0.57566864  0.68509683  0.14369137    -0.39800
N1734       N  0.98689687  0.61246517  0.15835475    -0.37500
N1735       N  0.87600435  0.76956815  0.17096433    -0.38500
N1736       N  0.46266405  0.84431478  0.17945229    -0.40200
C1737       C  0.60621793  0.81012190  0.91817324    -0.05100
C1738       C  0.57091195  0.82679557  0.41563145     0.09000
C1739       C  0.56805191  0.86731422  0.40744379    -0.02500
C1740       C  0.59895766  0.89163561  0.41310771    -0.00800
C1741       C  0.63140857  0.87502093  0.42789663    -0.04400
C1742       C  0.63696632  0.83486370  0.92196171     0.02600
C1743       C  0.53933105  0.80515679  0.43268185     0.09500
C1744       C  0.53283521  0.88398888  0.39757238     0.35400
C1745       C  0.67352007  0.81904161  0.92143868     0.38800
C1746       C  0.02834725  0.81512920  0.96980551    -0.04700
C1747       C  0.00340486  0.79091303  0.98928206     0.02400
C1748       C  0.99106750  0.75548364  0.47286275    -0.04300
C1749       C  0.49989672  0.74699516  0.43513273    -0.00600
C1750       C  0.52343013  0.77236497  0.41475015    -0.03100
C1751       C  0.04387257  0.84896307  0.98882195     0.36100
C1752       C  0.48423572  0.71265441  0.41717373     0.39700
C1753       C  0.99066713  0.80167687  0.02650613     0.38900
C1754       C  0.53118197  0.76477686  0.37548509     0.35800
C1755       C  0.61051867  0.76793416  0.92109327     0.36500
C1756       C  0.59707041  0.93362353  0.40708344     0.39700
N1757       N  0.97933607  0.80973520  0.05584116    -0.38300
N1758       N  0.05606017  0.87583659  0.00428363    -0.39900
N1759       N  0.47159251  0.68541305  0.40269088    -0.37700
N1760       N  0.53659398  0.75850494  0.34398377    -0.40100
N1761       N  0.50465322  0.89717592  0.38956534    -0.39800
N1762       N  0.59665562  0.96724688  0.40224950    -0.37500
N1763       N  0.70278157  0.80648578  0.92002088    -0.38500
N1764       N  0.61407963  0.73426398  0.92350166    -0.40200
C1765       C  0.96995735  0.72774912  0.99627957     0.80600
N1766       N  0.98485937  0.69404036  0.00851868    -0.77700
C1767       C  0.96688696  0.66956405  0.53299685     0.83000
N1768       N  0.93259002  0.67957510  0.54579214    -0.77700
C1769       C  0.91779571  0.71458111  0.53337322     0.83100
N1770       N  0.93705565  0.73785410  0.00905177    -0.79400
C1771       C  0.93162193  0.68401854  0.71531052     0.80600
N1772       N  0.94983343  0.65553718  0.73426204    -0.77700
C1773       C  0.94007170  0.64366687  0.76947940     0.83000
N1774       N  0.91078535  0.66092091  0.78701066    -0.77700
C1775       C  0.89201156  0.68999968  0.76786506     0.83100
N1776       N  0.90313238  0.70103916  0.73266125    -0.79400
C1777       C  0.89280625  0.95615429  0.96685480     0.80600
N1778       N  0.87191922  0.92855488  0.98426829    -0.77700
C1779       C  0.87979377  0.91536287  0.01976843     0.83000
N1780       N  0.90979697  0.92988286  0.03860222    -0.77700
C1781       C  0.93090741  0.95789817  0.02099088     0.83100
N1782       N  0.92214644  0.97042829  0.98564695    -0.79400
C1783       C  0.86239484  0.97146095  0.75868230     0.80600
N1784       N  0.84584129  0.93935326  0.77328198    -0.77700
C1785       C  0.86470624  0.91397349  0.79576332     0.83000
N1786       N  0.90117222  0.92076385  0.80354544    -0.77700
C1787       C  0.91720210  0.95438547  0.78961501     0.83100
N1788       N  0.89758214  0.97886975  0.76709870    -0.79400
O1789       O  0.99425339  0.96629281  0.02292390    -0.78200
C1790       C  0.54175035  0.54582652  0.93943811     0.82900
O1791       O  0.62267577  0.98279260  0.56084025    -0.79300
O1792       O  0.60728911  0.61225674  0.02209016    -0.80800
O1793       O  0.97423880  0.60500892  0.56300961    -0.80500
O1794       O  0.96063776  0.50663292  0.55732118    -0.79200
Zn1795     Zn  0.54003006  0.49763904  0.01268353     1.55700
O1796       O  0.51652304  0.62897318  0.02378999    -0.80600
Cd1797     Cd  0.99921921  0.54922642  0.57366609     1.59700
Cd1798     Cd  0.59139880  0.53236929  0.57779371     1.59600
O1799       O  0.51292332  0.54136988  0.63023319    -0.80600
O1800       O  0.54638120  0.54184588  0.04489271    -1.91100
Cd1801     Cd  0.55565898  0.58894134  0.01295864     1.59900
O1802       O  0.57314560  0.52800598  0.63317384    -0.80500
O1803       O  0.55045280  0.57767704  0.95569186    -0.79200
C1804       C  0.61477351  0.96127026  0.03267585     0.83400
C1805       C  0.96382383  0.97600948  0.03727439     0.83000
O1806       O  0.53629061  0.51426279  0.95816665    -0.78100
C1807       C  0.98646642  0.63248273  0.04137908     0.83800
O1808       O  0.58450028  0.96516162  0.01507270    -0.78200
C1809       C  0.54212772  0.53323188  0.64888094     0.83600
C1810       C  0.63242347  0.60513424  0.04631200     0.84300
O1811       O  0.62889783  0.57883658  0.57210827    -0.80600
O1812       O  0.56403058  0.94565683  0.81955722    -0.78200
C1813       C  0.53833924  0.54469358  0.89805167     0.82900
O1814       O  0.96971800  0.48025526  0.76348650    -0.79300
O1815       O  0.49262624  0.62081212  0.80369966    -0.80800
O1816       O  0.61462361  0.56930603  0.76977633    -0.80500
O1817       O  0.60700059  0.97322420  0.78325234    -0.79200
Zn1818     Zn  0.52653292  0.48939215  0.83062172     1.55700
O1819       O  0.58927787  0.61773318  0.80211063    -0.80600
Cd1820     Cd  0.57987704  0.52328610  0.76663829     1.59700
Cd1821     Cd  0.99438893  0.53377532  0.76118183     1.59600
O1822       O  0.56780281  0.51989004  0.70935068    -0.80600
O1823       O  0.53580303  0.53396034  0.79666418    -1.91100
Cd1824     Cd  0.53985714  0.58762174  0.82018741     1.59900
O1825       O  0.51022092  0.54040102  0.70602909    -0.80500
O1826       O  0.54137682  0.57654050  0.87859212    -0.79200
C1827       C  0.95607230  0.96529879  0.79320387     0.83400
C1828       C  0.59435888  0.94397399  0.80163351     0.83000
O1829       O  0.53277145  0.51123824  0.88295725    -0.78100
C1830       C  0.61528173  0.60422324  0.78186672     0.83800
O1831       O  0.97314686  0.96730034  0.82476001    -0.78200
C1832       C  0.53991969  0.53079636  0.69023370     0.84000
C1833       C  0.96306478  0.61206116  0.78561294     0.84300
O1834       O  0.95751191  0.57794905  0.77228385    -0.80600
C1835       C  0.64921918  0.89364618  0.96167709     0.80600
N1836       N  0.63085987  0.92142857  0.98034365    -0.77700
C1837       C  0.64022752  0.93266669  0.01580593     0.83000
N1838       N  0.66953943  0.91525393  0.03381118    -0.77700
C1839       C  0.68844952  0.88672461  0.01501030     0.83100
N1840       N  0.67763550  0.87629695  0.97960006    -0.79400
C1841       C  0.60527519  0.84862554  0.75831591     0.80600
N1842       N  0.59048866  0.88126808  0.77275647    -0.77700
C1843       C  0.61089270  0.90565025  0.79458639     0.83000
N1844       N  0.64721989  0.89739965  0.80169656    -0.77700
C1845       C  0.66161726  0.86351228  0.78765547     0.83100
N1846       N  0.64034423  0.84005547  0.76594565    -0.79400
C1847       C  0.72152806  0.60871868  0.00099658     0.80600
N1848       N  0.68786631  0.59782406  0.01245994    -0.77700
C1849       C  0.66928805  0.61949187  0.03757341     0.83000
N1850       N  0.68443683  0.65343834  0.05120369    -0.77700
C1851       C  0.71925906  0.66371186  0.04044488     0.83100
N1852       N  0.73728298  0.64133789  0.01527967    -0.79400
C1853       C  0.68861980  0.63248001  0.71635695     0.80600
N1854       N  0.65842865  0.61658945  0.73230642    -0.77700
C1855       C  0.64614458  0.62805110  0.76670546     0.83000
N1856       N  0.66530824  0.65612516  0.78636774    -0.77700
C1857       C  0.69641750  0.67173327  0.77031096     0.83100
N1858       N  0.70723363  0.65978130  0.73591163    -0.79400
O1859       O  0.76161246  0.77201927  0.96105476    -0.78200
C1860       C  0.73681300  0.70126878  0.04995178     0.82900
O1861       O  0.74133567  0.87412098  0.55576796    -0.79300
O1862       O  0.80129821  0.76510908  0.63380535    -0.80800
O1863       O  0.87189768  0.75796243  0.01933090    -0.80500
O1864       O  0.81885516  0.79288494  0.95426331    -0.79200
Zn1865     Zn  0.75115653  0.78059130  0.01691103     1.55700
O1866       O  0.86024063  0.71985353  0.56906571    -0.80600
Cd1867     Cd  0.83433672  0.79870913  0.00913917     1.59700
Cd1868     Cd  0.79054527  0.84450972  0.57301358     1.59600
O1869       O  0.86029585  0.85127443  0.01219226    -0.80600
O1870       O  0.79494742  0.79228646  0.04572232    -1.91100
Cd1871     Cd  0.80694461  0.74491808  0.57865994     1.59900
O1872       O  0.83482272  0.88351989  0.55951277    -0.80500
O1873       O  0.76814489  0.70084947  0.56631349    -0.79200
C1874       C  0.71770224  0.86185913  0.03177738     0.83400
C1875       C  0.78898250  0.78053631  0.94039064     0.83000
O1876       O  0.72372317  0.73235084  0.03502406    -0.78100
C1877       C  0.88101968  0.73034095  0.04167518     0.83800
O1878       O  0.71984792  0.82773946  0.01774072    -0.78200
C1879       C  0.85826086  0.88126847  0.03284544     0.84000
C1880       C  0.79524725  0.79818741  0.64942774     0.84300
O1881       O  0.79082544  0.83030121  0.63076309    -0.80600
O1882       O  0.70915796  0.82452950  0.76832742    -0.78200
C1883       C  0.79253480  0.79856454  0.69071987     0.82900
O1884       O  0.74243748  0.69857675  0.81147188    -0.79300
O1885       O  0.86248454  0.74987680  0.77010152    -0.80800
O1886       O  0.81389304  0.87703673  0.81732832    -0.80500
O1887       O  0.72081016  0.85833328  0.82011590    -0.79200
Zn1888     Zn  0.74586487  0.78442046  0.75943341     1.55700
O1889       O  0.85943190  0.84582585  0.78886073    -0.80600
Cd1890     Cd  0.77412687  0.83370679  0.82833186     1.59700
Cd1891     Cd  0.78901884  0.73434764  0.82383990     1.59600
O1892       O  0.77973843  0.81315860  0.88302405    -0.80600
O1893       O  0.78442357  0.78695756  0.79581686    -1.91100
Cd1894     Cd  0.83042522  0.79831043  0.76823678     1.59900
O1895       O  0.78964879  0.74793556  0.88151418    -0.80500
O1896       O  0.82051409  0.80744162  0.71065253    -0.79200
C1897       C  0.71846872  0.70408345  0.78537266     0.83400
C1898       C  0.69974974  0.84973276  0.79241404     0.83000
O1899       O  0.76252601  0.78796717  0.70568207    -0.78100
C1900       C  0.84611186  0.87651397  0.80331533     0.83800
O1901       O  0.71847320  0.73488418  0.76493962    -0.78200
C1902       C  0.78548419  0.78009987  0.89935067     0.84000
C1903       C  0.86286584  0.71523913  0.78390143     0.84300
O1904       O  0.83776880  0.70311946  0.80657231    -0.80600
C1905       C  0.81392669  0.51354543  0.67264243    -0.05100
C1906       C  0.79966094  0.54828680  0.68787155     0.09000
C1907       C  0.81071792  0.56015388  0.72459750    -0.02500
C1908       C  0.83250721  0.53532249  0.74712727    -0.00800
C1909       C  0.84258248  0.99844649  0.73351925    -0.04400
C1910       C  0.83479698  0.98812891  0.69580225     0.02600
C1911       C  0.76776153  0.56815764  0.66963013     0.09500
C1912       C  0.79850169  0.59700152  0.74021764     0.35400
C1913       C  0.84804144  0.95134830  0.68102081     0.38800
C1914       C  0.73303444  0.54992090  0.67256592    -0.04700
C1915       C  0.70199510  0.57332148  0.67780417     0.02400
C1916       C  0.70676712  0.61393943  0.68339702    -0.04300
C1917       C  0.73856377  0.63190168  0.66817603    -0.00600
C1918       C  0.76953904  0.60865806  0.66127797    -0.03100
C1919       C  0.72968691  0.50752263  0.67532960     0.36100
C1920       C  0.74067882  0.67419848  0.66406011     0.39700
C1921       C  0.66629736  0.55514236  0.68107259     0.38900
C1922       C  0.80430134  0.62663632  0.65137570     0.35800
C1923       C  0.80611228  0.50356460  0.63365990     0.36500
C1924       C  0.84349160  0.54686405  0.78500361     0.39700
N1925       N  0.63793656  0.54011796  0.68334205    -0.38300
N1926       N  0.72687279  0.97372020  0.67754095    -0.39900
N1927       N  0.74222039  0.70800860  0.66096130    -0.37700
N1928       N  0.83211255  0.64095829  0.64360064    -0.40100
N1929       N  0.78934084  0.62648000  0.75290035    -0.39800
N1930       N  0.85275389  0.55553378  0.81513918    -0.37500
N1931       N  0.85865610  0.92202378  0.66923935    -0.38500
N1932       N  0.79990587  0.99559415  0.60256774    -0.40200
C1933       C  0.77358994  0.52421966  0.46044216    -0.05100
C1934       C  0.78791916  0.54161139  0.92679388     0.09000
C1935       C  0.77503945  0.57877146  0.91476111    -0.02500
C1936       C  0.75233857  0.60059773  0.93864143    -0.00800
C1937       C  0.74123889  0.58457029  0.97372724    -0.04400
C1938       C  0.74994332  0.54554918  0.48345271     0.02600
C1939       C  0.82136466  0.52420168  0.90974903     0.09500
C1940       C  0.78643658  0.59535859  0.87875181     0.35400
C1941       C  0.73662277  0.52818537  0.51855750     0.38800
C1942       C  0.82069289  0.98444914  0.89898796    -0.04700
C1943       C  0.84944258  0.95984759  0.91136476     0.02400
C1944       C  0.87897758  0.97639882  0.93193303    -0.04300
C1945       C  0.88537713  0.51719790  0.92770022    -0.00600
C1946       C  0.85559588  0.54155581  0.91858994    -0.03100
C1947       C  0.78795790  0.96813562  0.88175996     0.36100
C1948       C  0.92068715  0.53447889  0.93692776     0.39700
C1949       C  0.84655825  0.91768085  0.90719924     0.38900
C1950       C  0.85898124  0.58355395  0.92399915     0.35800
C1951       C  0.78474075  0.48540841  0.47326385     0.36500
C1952       C  0.74074959  0.63973121  0.92741115     0.39700
N1953       N  0.84416940  0.88397647  0.90414918    -0.38300
N1954       N  0.76183156  0.95506404  0.86796450    -0.39900
N1955       N  0.94879941  0.54847044  0.94418619    -0.37700
N1956       N  0.86191133  0.61702940  0.92846537    -0.40100
N1957       N  0.79542035  0.60927861  0.85027089    -0.39800
N1958       N  0.73147576  0.67095738  0.91854447    -0.37500
N1959       N  0.72597962  0.51425774  0.54642072    -0.38500
N1960       N  0.79281553  0.45442709  0.48405542    -0.40200
C1961       C  0.47250603  0.76915861  0.67187468    -0.05100
C1962       C  0.50811100  0.75332808  0.66974517     0.09000
C1963       C  0.51174230  0.71321377  0.66101372    -0.02500
C1964       C  0.98166367  0.68783835  0.66718293    -0.00800
C1965       C  0.94891423  0.70325430  0.68153967    -0.04400
C1966       C  0.94245010  0.74340491  0.67493467     0.02600
C1967       C  0.53908094  0.77461393  0.68832130     0.09500
C1968       C  0.54725985  0.69768462  0.65136623     0.35400
C1969       C  0.90549280  0.75799389  0.67322542     0.38800
C1970       C  0.55220342  0.76084888  0.72392627    -0.04700
C1971       C  0.57665590  0.78393246  0.74502241     0.02400
C1972       C  0.58399757  0.82278728  0.73340680    -0.04300
C1973       C  0.57240981  0.83609705  0.69740339    -0.00600
C1974       C  0.55180141  0.81101358  0.67398008    -0.03100
C1975       C  0.53914324  0.72406950  0.74022592     0.36100
C1976       C  0.58216768  0.87527942  0.68426211     0.39700
C1977       C  0.59418725  0.76779666  0.77871609     0.38900
C1978       C  0.54422180  0.82252848  0.63521252     0.35800
C1979       C  0.46697974  0.81097090  0.67604705     0.36500
C1980       C  0.98497874  0.64604026  0.66221111     0.39700
N1981       N  0.60899708  0.75484801  0.80504446    -0.38300
N1982       N  0.52880069  0.69490236  0.75356993    -0.39900
N1983       N  0.58975957  0.90660126  0.67383937    -0.37700
N1984       N  0.03939893  0.83232826  0.60417699    -0.40100
N1985       N  0.57565382  0.68525022  0.64376264    -0.39800
N1986       N  0.98695051  0.61251483  0.65828967    -0.37500
N1987       N  0.87587431  0.76946224  0.67081658    -0.38500
N1988       N  0.46244017  0.84430724  0.67961354    -0.40200
C1989       C  0.60610706  0.80996071  0.41802122    -0.05100
C1990       C  0.57103564  0.82699090  0.91578127     0.09000
C1991       C  0.56820262  0.86750243  0.90753633    -0.02500
C1992       C  0.59914453  0.89179628  0.91309752    -0.00800
C1993       C  0.63158451  0.87517447  0.92789591    -0.04400
C1994       C  0.63683234  0.83472511  0.42190054     0.02600
C1995       C  0.53942992  0.80537100  0.93280134     0.09500
C1996       C  0.53298732  0.88420988  0.89771546     0.35400
C1997       C  0.67340422  0.81894445  0.42135884     0.38800
C1998       C  0.02831721  0.81487219  0.46972099    -0.04700
C1999       C  0.00337050  0.79066492  0.48919970     0.02400
C2000       C  0.99120176  0.75566613  0.97299166    -0.04300
C2001       C  0.50011946  0.74711941  0.93529470    -0.00600
C2002       C  0.52360844  0.77252200  0.91489786    -0.03100
C2003       C  0.04390662  0.84865841  0.48876210     0.36100
C2004       C  0.48462188  0.71266579  0.91738831     0.39700
C2005       C  0.99070260  0.80137524  0.52646355     0.38900
C2006       C  0.53140913  0.76490856  0.87564717     0.35800
C2007       C  0.61043524  0.76777150  0.42083364     0.36500
C2008       C  0.59730749  0.93377439  0.90697996     0.39700
N2009       N  0.97940432  0.80936908  0.55582867    -0.38300
N2010       N  0.05614366  0.87549578  0.50424188    -0.39900
N2011       N  0.47212553  0.68532521  0.90294615    -0.37700
N2012       N  0.53686870  0.75863098  0.84415601    -0.40100
N2013       N  0.50480427  0.89742648  0.88976109    -0.39800
N2014       N  0.59692717  0.96738634  0.90205882    -0.37500
N2015       N  0.70268178  0.80643031  0.41992192    -0.38500
N2016       N  0.61401684  0.73409858  0.42315257    -0.40200
loop_ 
_geom_bond_atom_site_label_1 
_geom_bond_atom_site_label_2 
_geom_bond_distance 
_geom_bond_site_symmetry_2 
_ccdc_geom_bond_type 
C1            N2   1.340       .  A
C1            N6   1.335       .  A
C1          C236   1.472       .  S
N2          C255   1.361       .  A
C3            N4   1.381       .  A
C3          N254   1.361       .  A
C3          C295   1.483       .  S
N4            C5   1.378       .  A
C5          N258   1.357       .  A
C5          C365   1.483       .  S
N6          C257   1.357       .  A
C7            N8   1.349       .  A
C7           N12   1.350       .  A
C7          C201   1.498       .  S
N8            C9   1.355       .  A
C9           N10   1.379       .  A
C9           C69   1.476       .  S
N10          C11   1.377       .  A
C11          N12   1.361       .  A
C11         C139   1.492       .  S
C13          N14   1.352       .  A
C13          N18   1.348       .  A
C13         C180   1.494       .  S
N14          C15   1.358       .  A
C15          N16   1.371       .  A
C15         C115   1.470       .  S
N16          C17   1.370       .  A
C17          N18   1.353       .  A
C17          C41   1.465       .  S
C19          N20   1.346       .  A
C19          N24   1.340       .  A
C19         C145   1.463       .  S
N20          C21   1.355       .  A
C21          N22   1.376       .  A
C21         C136   1.464       .  S
N22          C23   1.371       .  A
C23          N24   1.351       .  A
C23          C63   1.470       .  S
O25          C41   1.272       .  A
O25       Zn1543   2.010       .  S
C26          C49   1.469       .  S
C26          O42   1.272       .  A
C26          O39   1.272       .  A
O27         C292   1.277       .  A
O27        Cd538   2.139       .  S
O28          C46   1.273       .  A
O28         Cd37   2.066       .  S
O29         C295   1.279       .  A
O29         Cd33   2.141       .  S
O30         C797   1.277   1_545  A
O30         Cd33   2.099       .  S
Zn31         O42   2.007   1_565  S
Zn31       O1537   2.010   1_455  S
Zn31        O548   1.971       .  S
Zn31         O36   1.911   1_565  S
O32        C1051   1.273   1_455  A
O32         Cd37   2.023       .  S
Cd33       O1043   2.074       .  S
Cd33       O1296   2.026       .  S
Cd34         O38   2.077       .  S
Cd34         O47   2.095       .  S
Cd34        O531   2.139   1_545  S
Cd34        O288   2.032       .  S
O35          C45   1.280       .  A
O35       Cd1041   2.074   1_455  S
O36         Cd37   1.980       .  S
O36       Cd1293   2.026   1_455  S
O36        Cd286   2.032       .  S
Cd37         O39   2.074       .  S
O38          C45   1.280       .  A
C40          C73   1.485       .  S
C40          O44   1.271       .  A
C40         O279   1.277       .  A
C41         O786   1.277       .  A
C43         C255   1.483       .  S
C43         O281   1.279       .  A
C43        O1040   1.273       .  A
O44        Zn535   1.971       .  S
C45          C68   1.467       .  S
C46          C85   1.463       .  S
C46         O299   1.277       .  A
O47         C298   1.277       .  A
O48          C64   1.282       .  A
O48        Zn558   2.073       .  S
C49          O65   1.279       .  A
C49          O62   1.282       .  A
O50         C567   1.267       .  A
O50         Cd57   2.030   1_565  S
O51        C1077   1.286       .  A
O51         Cd60   2.141   1_655  S
O52          C66   1.269       .  A
O52         Cd56   2.015       .  S
O53          C64   1.270       .  A
O53        Cd560   2.056       .  S
Zn54         O65   2.015   1_565  S
Zn54        O552   2.073       .  S
Zn54       O1579   2.095   1_455  S
Zn54         O59   1.954   1_565  S
O55          C66   1.285       .  A
O55         Cd60   2.167       .  S
Cd56         O58   2.075       .  S
Cd56        O557   2.056   1_545  S
Cd56         O59   1.973       .  S
Cd57         O70   2.069       .  S
Cd57       O1069   2.049       .  S
Cd57       O1067   1.958       .  S
O58          C68   1.273       .  A
O59         Cd60   2.022       .  S
O59       Cd1065   1.958   1_455  S
Cd60         O62   2.096       .  S
O61          C68   1.270       .  A
O61       Cd1065   2.049   1_455  S
C63          O67   1.277       .  A
C63         O554   1.267       .  A
C64          C79   1.467       .  S
C66          C91   1.484       .  S
O67       Zn1566   2.095       .  S
C69          O70   1.274       .  A
C69        O1059   1.286       .  A
C71          N72   1.346       .  A
C71          N76   1.348       .  A
C71         C229   1.497       .  S
N72          C73   1.357       .  A
C73          N74   1.375       .  A
N74          C75   1.377       .  A
C75          N76   1.361       .  A
C75         C110   1.483       .  S
C77          N78   1.347       .  A
C77          N82   1.340       .  A
C77         C208   1.468       .  S
N78          C79   1.357       .  A
C79          N80   1.378       .  A
N80          C81   1.372       .  A
C81          N82   1.353       .  A
C81         C134   1.480       .  S
C83          N84   1.346       .  A
C83          N88   1.350       .  A
C83         C173   1.471       .  S
N84          C85   1.351       .  A
C85          N86   1.370       .  A
N86          C87   1.372       .  A
C87          N88   1.356       .  A
C87          C96   1.469       .  S
C89          N90   1.349       .  A
C89          N94   1.344       .  A
C89         C152   1.494       .  S
N90          C91   1.363       .  A
C91          N92   1.374       .  A
N92          C93   1.375       .  A
C93          N94   1.351       .  A
C93         C133   1.464       .  S
O95         C111   1.273       .  A
O95        Zn101   2.040       .  S
C96         O112   1.272       .  A
C96         O361   1.280       .  A
O97         C362   1.281       .  A
O97        Cd104   2.147       .  S
O98         C116   1.282       .  A
O98        Cd107   2.089       .  S
O99         C113   1.266       .  A
O99        Cd103   1.985       .  S
O100        C111   1.264       .  A
O100       Cd103   2.030       .  S
Zn101       O112   2.019       .  S
Zn101       O114   1.978       .  S
Zn101       O106   1.931       .  S
O102        C365   1.279       .  A
O102       Cd107   2.161       .  S
Cd103       O105   2.025       .  S
Cd103       O106   1.951       .  S
Cd104       O108   2.139       .  S
Cd104       O117   2.094       .  S
Cd104       O358   2.044       .  S
O105        C115   1.266       .  A
O106       Cd356   2.044       .  S
O106       Cd359   2.027       .  S
Cd107       O109   2.105       .  S
Cd107       O358   2.027       .  S
O108        C367   1.281       .  A
O109        C348   1.280       .  A
C110        O114   1.273       .  A
C110        O349   1.281       .  A
C111        C138   1.457       .  S
C113        C257   1.483       .  S
C113        O354   1.279       .  A
C115        O360   1.281       .  A
C116        C119   1.465       .  S
C116        O117   1.281       .  A
O118        C134   1.268       .  A
O118       Zn124   1.950       .  S
C119        O135   1.269       .  A
C119        O132   1.274       .  A
O120        C133   1.280       .  A
O120       Cd127   2.132       .  S
O121        C139   1.272       .  A
O121       Cd130   2.029       .  S
O122        C136   1.280       .  A
O122       Cd126   2.099       .  S
O123        C134   1.277       .  A
O123       Cd126   2.141       .  S
Zn124       O135   2.003       .  S
Zn124       O137   1.965       .  S
Zn124       O129   1.902       .  S
O125        C136   1.271       .  A
O125       Cd130   2.066       .  S
Cd126       O128   2.058       .  S
Cd126       O129   2.015       .  S
Cd127       O131   2.098       .  S
Cd127       O140   2.175       .  S
Cd127       O129   2.045       .  S
O128        C138   1.277       .  A
O129       Cd130   1.982       .  S
Cd130       O132   2.086       .  S
O131        C138   1.282       .  A
C133        O137   1.267       .  A
C139        O140   1.285       .  A
C141        C142   1.411       .  A
C141        C650   1.408   1_545  A
C141        C159   1.450       .  S
C142        C147   1.490       .  S
C142        C143   1.420       .  A
C143        C144   1.402       .  A
C143        C148   1.452       .  S
C144        C649   1.404   1_545  A
C144        C160   1.454       .  S
C145        C146   1.410       .  A
C145        C648   1.404       .  A
C146        C645   1.408       .  A
C146        C149   1.451       .  S
C147        C150   1.412       .  A
C147        C154   1.409       .  A
C148        N165   1.157       .  T
C149        N167   1.157       .  T
C150        C151   1.405       .  A
C150        C155   1.451       .  S
C151        C152   1.410       .  A
C151        C157   1.444       .  S
C152        C153   1.416       .  A
C153        C154   1.409       .  A
C153        C156   1.448       .  S
C154        C158   1.449       .  S
C155        N666   1.157   1_545  T
C156        N163   1.157       .  T
C157        N161   1.155       .  T
C158        N164   1.157       .  T
C159        N672   1.157   1_545  T
C160        N166   1.157       .  T
N162        C659   1.157       .  T
N168        C663   1.157       .  T
C169        C174   1.403       .  A
C169        C422   1.423       .  A
C169        C187   1.452   1_545  S
C170        C175   1.495       .  S
C170        C171   1.413       .  A
C170        C421   1.423       .  A
C171        C172   1.410       .  A
C171        C176   1.450       .  S
C172        C173   1.411       .  A
C172        C188   1.451       .  S
C173        C426   1.406       .  A
C174        C425   1.406       .  A
C174        C177   1.455   1_556  S
C175        C182   1.414       .  A
C175        C682   1.410   1_545  A
C176        N193   1.157       .  T
C177        N195   1.158       .  T
C178        C179   1.411       .  A
C178        C679   1.410       .  A
C178        C183   1.448       .  S
C179        C180   1.414       .  A
C179        C185   1.449       .  S
C180        C685   1.414       .  A
C181        C182   1.405       .  A
C181        C684   1.414   1_545  A
C181        C184   1.451       .  S
C182        C186   1.450       .  S
C183        N190   1.157       .  T
C184        N191   1.157       .  T
C185        N189   1.157       .  T
C186        N192   1.157       .  T
C187        N196   1.157       .  T
C188        N194   1.157       .  T
C197        C198   1.413   1_655  A
C197       C1210   1.405       .  A
C197        C215   1.450       .  S
C198        C203   1.492       .  S
C198        C199   1.412       .  A
C199       C1208   1.410   1_455  A
C199        C204   1.448       .  S
C200        C201   1.410       .  A
C200       C1207   1.410       .  A
C200        C216   1.443       .  S
C201        C202   1.406       .  A
C202       C1205   1.405       .  A
C202        C205   1.442       .  S
C203        C206   1.420       .  A
C203        C210   1.411       .  A
C204        N221   1.157       .  T
C205        N223   1.154       .  T
C206        C207   1.403       .  A
C206        C211   1.452       .  S
C207        C208   1.406       .  A
C207        C213   1.452       .  S
C208        C209   1.410       .  A
C209        C210   1.408       .  A
C209        C212   1.451       .  S
C210        C214   1.447       .  S
C211        N218   1.157       .  T
C212        N219   1.157       .  T
C213        N217   1.158       .  T
C214       N1228   1.156       .  T
C215        N224   1.157       .  T
C216        N222   1.155       .  T
N220       C1222   1.156       .  T
C225        C230   1.406       .  A
C225        C478   1.412       .  A
C225        C243   1.449       .  S
C226        C231   1.492       .  S
C226        C227   1.411       .  A
C226        C477   1.412       .  A
C227        C228   1.410       .  A
C227        C232   1.448       .  S
C228        C229   1.411       .  A
C228        C244   1.446       .  S
C229        C482   1.407       .  A
C230        C481   1.407       .  A
C230        C233   1.443       .  S
C231        C238   1.411       .  A
C231       C1494   1.417       .  A
C232        N249   1.157       .  T
C233        N251   1.155       .  T
C234        C235   1.404       .  A
C234       C1491   1.417       .  A
C234        C239   1.452       .  S
C235        C488   1.407       .  A
C235        C241   1.452   1_556  S
C236        C487   1.407       .  A
C236       C1245   1.409       .  A
C237        C238   1.411   1_655  A
C237       C1244   1.409       .  A
C237        C240   1.450       .  S
C238        C242   1.447       .  S
C239        N246   1.157   1_556  T
C240        N247   1.157       .  T
C241        N245   1.157       .  T
C242        N248   1.156       .  T
C243        N252   1.157       .  T
C244        N250   1.156       .  T
C253        N254   1.340   1_556  A
C253        N258   1.335   1_556  A
C253        C488   1.472       .  S
C255        N256   1.381       .  A
N256        C257   1.378       .  A
C259        N260   1.349       .  A
C259        N264   1.350       .  A
C259        C453   1.498       .  S
N260        C261   1.355       .  A
C261        N262   1.379       .  A
C261        C321   1.476       .  S
N262        C263   1.377       .  A
C263        N264   1.361       .  A
C263        C391   1.492       .  S
C265        N266   1.352       .  A
C265        N270   1.348       .  A
C265        C432   1.494       .  S
N266        C267   1.358   1_556  A
C267        N268   1.371       .  A
C267        C367   1.470       .  S
N268        C269   1.370       .  A
C269        N270   1.353   1_554  A
C269        C293   1.465       .  S
C271        N272   1.346       .  A
C271        N276   1.340       .  A
C271        C397   1.463       .  S
N272        C273   1.355       .  A
C273        N274   1.376       .  A
C273        C388   1.464       .  S
N274        C275   1.371       .  A
C275        N276   1.351       .  A
C275        C315   1.470       .  S
O277        C293   1.272       .  A
O277      Zn1795   2.010       .  S
C278        C301   1.469       .  S
C278        O294   1.272       .  A
C278        O291   1.272       .  A
O279       Cd790   2.139       .  S
O280        C298   1.273       .  A
O280       Cd289   2.066       .  S
O281       Cd285   2.141       .  S
O282        C545   1.277   1_545  A
O282       Cd285   2.099       .  S
Zn283      O1789   2.010   1_455  S
Zn283       O294   2.007   1_564  S
Zn283       O800   1.971       .  S
Zn283       O288   1.912   1_565  S
O284       C1303   1.273   1_455  A
O284       Cd289   2.024       .  S
Cd285      O1295   2.074       .  S
Cd285      O1044   2.026       .  S
Cd286       O783   2.139   1_545  S
Cd286       O290   2.078       .  S
Cd286       O299   2.095       .  S
O287        C297   1.280       .  A
O287      Cd1293   2.074   1_455  S
O288      Cd1041   2.026   1_455  S
O288       Cd289   1.980       .  S
Cd289       O291   2.074   1_554  S
O290        C297   1.280       .  A
C292        C325   1.485       .  S
C292        O296   1.271       .  A
C293        O534   1.277       .  A
C295       O1292   1.273       .  A
O296       Zn787   1.971       .  S
C297        C320   1.467       .  S
C298        C337   1.463       .  S
O300        C316   1.282       .  A
O300       Zn810   2.073       .  S
C301        O317   1.279       .  A
C301        O314   1.282       .  A
O302        C819   1.267       .  A
O302       Cd309   2.030   1_565  S
O303       C1329   1.286       .  A
O303       Cd312   2.142   1_655  S
O304        C318   1.269       .  A
O304       Cd308   2.014       .  S
O305        C316   1.270       .  A
O305       Cd812   2.055       .  S
Zn306       O804   2.073       .  S
Zn306       O317   2.015   1_565  S
Zn306      O1831   2.095   1_455  S
Zn306       O311   1.954   1_565  S
O307        C318   1.285       .  A
O307       Cd312   2.167       .  S
Cd308       O809   2.055   1_545  S
Cd308       O310   2.075       .  S
Cd308       O311   1.973       .  S
Cd309      O1321   2.049       .  S
Cd309       O322   2.069       .  S
Cd309      O1319   1.958       .  S
O310        C320   1.273       .  A
O311      Cd1317   1.958   1_455  S
O311       Cd312   2.022       .  S
Cd312       O314   2.096       .  S
O313        C320   1.270       .  A
O313      Cd1317   2.049   1_455  S
C315        O806   1.267       .  A
C315        O319   1.277       .  A
C316        C331   1.467       .  S
C318        C343   1.484       .  S
O319      Zn1818   2.095       .  S
C321       O1311   1.286       .  A
C321        O322   1.274       .  A
C323        N324   1.346       .  A
C323        N328   1.348       .  A
C323        C481   1.497       .  S
N324        C325   1.357   1_556  A
C325        N326   1.375       .  A
N326        C327   1.377       .  A
C327        N328   1.361   1_554  A
C327        C362   1.483       .  S
C329        N330   1.347       .  A
C329        N334   1.340       .  A
C329        C460   1.468       .  S
N330        C331   1.357       .  A
C331        N332   1.378       .  A
N332        C333   1.372       .  A
C333        N334   1.353       .  A
C333        C386   1.480       .  S
C335        N336   1.346       .  A
C335        N340   1.350       .  A
C335        C425   1.471   1_554  S
N336        C337   1.351       .  A
C337        N338   1.370       .  A
N338        C339   1.372       .  A
C339        N340   1.356       .  A
C339        C348   1.469       .  S
C341        N342   1.349       .  A
C341        N346   1.344       .  A
C341        C404   1.494       .  S
N342        C343   1.363       .  A
C343        N344   1.374       .  A
N344        C345   1.375       .  A
C345        N346   1.351       .  A
C345        C385   1.464       .  S
O347        C363   1.273       .  A
O347       Zn353   2.040   1_556  S
C348        O364   1.272       .  A
O349       Cd356   2.147       .  S
O350        C368   1.282       .  A
O350       Cd359   2.089       .  S
O351        C365   1.266       .  A
O351       Cd355   1.986       .  S
O352        C363   1.264       .  A
O352       Cd355   2.030   1_556  S
Zn353       O364   2.019       .  S
Zn353       O366   1.978       .  S
Zn353       O358   1.932       .  S
O354       Cd359   2.161       .  S
Cd355       O357   2.025       .  S
Cd355       O358   1.952       .  S
Cd356       O360   2.139       .  S
Cd356       O369   2.094       .  S
O357        C367   1.266       .  A
Cd359       O361   2.105       .  S
C362        O366   1.273       .  A
C363        C390   1.457       .  S
C368        C371   1.465       .  S
C368        O369   1.281       .  A
O370        C386   1.268       .  A
O370       Zn376   1.950       .  S
C371        O387   1.269       .  A
C371        O384   1.274       .  A
O372        C385   1.280       .  A
O372       Cd379   2.132       .  S
O373        C391   1.272       .  A
O373       Cd382   2.029       .  S
O374        C388   1.280       .  A
O374       Cd378   2.099       .  S
O375        C386   1.277       .  A
O375       Cd378   2.141       .  S
Zn376       O387   2.003       .  S
Zn376       O389   1.965       .  S
Zn376       O381   1.903       .  S
O377        C388   1.271       .  A
O377       Cd382   2.066       .  S
Cd378       O380   2.059       .  S
Cd378       O381   2.015       .  S
Cd379       O383   2.098       .  S
Cd379       O392   2.175       .  S
Cd379       O381   2.045       .  S
O380        C390   1.277       .  A
O381       Cd382   1.982       .  S
Cd382       O384   2.086       .  S
O383        C390   1.282       .  A
C385        O389   1.267       .  A
C391        O392   1.285       .  A
C393        C394   1.411       .  A
C393        C902   1.408   1_545  A
C393        C411   1.450       .  S
C394        C399   1.490       .  S
C394        C395   1.420       .  A
C395        C396   1.402       .  A
C395        C400   1.452       .  S
C396        C901   1.404   1_545  A
C396        C412   1.454       .  S
C397        C900   1.404       .  A
C397        C398   1.410       .  A
C398        C897   1.408       .  A
C398        C401   1.451       .  S
C399        C402   1.412       .  A
C399        C406   1.409       .  A
C400        N417   1.157       .  T
C401        N419   1.157       .  T
C402        C403   1.405       .  A
C402        C407   1.451       .  S
C403        C404   1.410       .  A
C403        C409   1.444       .  S
C404        C405   1.416       .  A
C405        C406   1.409       .  A
C405        C408   1.448       .  S
C406        C410   1.449       .  S
C407        N918   1.157   1_545  T
C408        N415   1.157       .  T
C409        N413   1.155       .  T
C410        N416   1.157       .  T
C411        N924   1.157   1_545  T
C412        N418   1.157       .  T
N414        C911   1.157       .  T
N420        C915   1.157       .  T
C421        C426   1.403       .  A
C421        C439   1.452   1_545  S
C422        C427   1.495       .  S
C422        C423   1.413       .  A
C423        C424   1.410       .  A
C423        C428   1.450       .  S
C424        C425   1.411       .  A
C424        C440   1.451       .  S
C426        C429   1.455       .  S
C427        C934   1.411   1_545  A
C427        C434   1.414       .  A
C428        N445   1.157       .  T
C429        N447   1.158       .  T
C430        C931   1.411       .  A
C430        C431   1.411       .  A
C430        C435   1.448       .  S
C431        C432   1.414       .  A
C431        C437   1.449       .  S
C432        C937   1.414       .  A
C433        C936   1.414   1_545  A
C433        C434   1.405       .  A
C433        C436   1.450       .  S
C434        C438   1.450       .  S
C435        N442   1.157       .  T
C436        N443   1.157       .  T
C437        N441   1.157       .  T
C438        N444   1.157       .  T
C439        N448   1.157       .  T
C440        N446   1.157       .  T
C449        C450   1.414   1_655  A
C449       C1462   1.405       .  A
C449        C467   1.450       .  S
C450        C455   1.492       .  S
C450        C451   1.412       .  A
C451       C1460   1.410   1_455  A
C451        C456   1.448       .  S
C452       C1459   1.410       .  A
C452        C453   1.410       .  A
C452        C468   1.443       .  S
C453        C454   1.406       .  A
C454       C1457   1.405       .  A
C454        C457   1.442       .  S
C455        C458   1.420       .  A
C455        C462   1.411       .  A
C456        N473   1.157       .  T
C457        N475   1.154       .  T
C458        C459   1.403       .  A
C458        C463   1.452       .  S
C459        C460   1.406       .  A
C459        C465   1.452       .  S
C460        C461   1.410       .  A
C461        C462   1.408       .  A
C461        C464   1.451       .  S
C462        C466   1.447       .  S
C463        N470   1.157       .  T
C464        N471   1.157       .  T
C465        N469   1.158       .  T
C466       N1480   1.156       .  T
C467        N476   1.157       .  T
C468        N474   1.155       .  T
N472       C1474   1.156       .  T
C477        C482   1.406       .  A
C477        C495   1.449       .  S
C478        C483   1.492       .  S
C478        C479   1.411       .  A
C479        C480   1.410       .  A
C479        C484   1.448       .  S
C480        C481   1.410       .  A
C480        C496   1.446       .  S
C482        C485   1.443       .  S
C483       C1242   1.417       .  A
C483        C490   1.411       .  A
C484        N501   1.157       .  T
C485        N503   1.155       .  T
C486       C1239   1.417       .  A
C486        C487   1.404       .  A
C486        C491   1.452       .  S
C487        C493   1.452       .  S
C488       C1497   1.410       .  A
C489       C1496   1.410   1_455  A
C489        C490   1.411       .  A
C489        C492   1.450   1_455  S
C490        C494   1.447       .  S
C491        N498   1.157       .  T
C492        N499   1.157       .  T
C493        N497   1.157       .  T
C494        N500   1.156       .  T
C495        N504   1.157       .  T
C496        N502   1.156       .  T
C505        N506   1.340       .  A
C505        N510   1.335       .  A
C505        C740   1.472       .  S
N506        C759   1.361       .  A
C507        N758   1.361       .  A
C507        N508   1.381       .  A
C507        C799   1.483       .  S
N508        C509   1.378       .  A
C509        N762   1.357       .  A
C509        C869   1.483       .  S
N510        C761   1.357       .  A
C511        N512   1.349       .  A
C511        N516   1.350       .  A
C511        C705   1.498       .  S
N512        C513   1.355       .  A
C513        N514   1.379       .  A
C513        C573   1.476       .  S
N514        C515   1.377       .  A
C515        N516   1.361       .  A
C515        C643   1.492       .  S
C517        N518   1.352       .  A
C517        N522   1.348       .  A
C517        C684   1.494       .  S
N518        C519   1.358       .  A
C519        N520   1.371       .  A
C519        C619   1.470       .  S
N520        C521   1.370       .  A
C521        N522   1.353       .  A
C521        C545   1.465       .  S
C523        N524   1.346       .  A
C523        N528   1.340       .  A
C523        C649   1.463       .  S
N524        C525   1.355       .  A
C525        N526   1.376       .  A
C525        C640   1.464       .  S
N526        C527   1.371       .  A
C527        N528   1.351       .  A
C527        C567   1.470       .  S
O529        C545   1.272       .  A
O529      Zn1039   2.010       .  S
C530        C553   1.469       .  S
C530        O546   1.272       .  A
C530        O543   1.272       .  A
O531        C796   1.277       .  A
O532        C550   1.273       .  A
O532       Cd541   2.065       .  S
O533        C799   1.279       .  A
O533       Cd537   2.141       .  S
O534       Cd537   2.099       .  S
Zn535      O1033   2.010   1_455  S
Zn535       O546   2.007       .  S
Zn535       O540   1.911       .  S
O536       C1555   1.273   1_455  A
O536       Cd541   2.023       .  S
Cd537      O1547   2.074       .  S
Cd537      O1800   2.026       .  S
Cd538       O542   2.077       .  S
Cd538       O551   2.095       .  S
Cd538       O792   2.032       .  S
O539        C549   1.280       .  A
O539      Cd1545   2.074   1_455  S
O540      Cd1797   2.026   1_455  S
O540       Cd790   2.032       .  S
O540       Cd541   1.980       .  S
Cd541       O543   2.074       .  S
O542        C549   1.280       .  A
C544        C577   1.485       .  S
C544        O783   1.277       .  A
C544        O548   1.271       .  A
C547        C759   1.483       .  S
C547        O785   1.279       .  A
C547       O1544   1.273       .  A
C549        C572   1.467       .  S
C550        C589   1.463       .  S
C550        O803   1.277       .  A
O551        C802   1.277       .  A
O552        C568   1.282       .  A
C553        O569   1.279       .  A
C553        O566   1.282       .  A
O554       Cd561   2.030       .  S
O555       C1581   1.286       .  A
O555       Cd564   2.141   1_655  S
O556        C570   1.269       .  A
O556       Cd560   2.015       .  S
O557        C568   1.270       .  A
Zn558       O569   2.015       .  S
Zn558      O1075   2.095   1_455  S
Zn558       O563   1.954       .  S
O559        C570   1.285       .  A
O559       Cd564   2.167       .  S
Cd560       O562   2.075       .  S
Cd560       O563   1.973       .  S
Cd561      O1573   2.049       .  S
Cd561       O574   2.069       .  S
Cd561      O1571   1.958       .  S
O562        C572   1.273       .  A
O563      Cd1569   1.958   1_455  S
O563       Cd564   2.022       .  S
Cd564       O566   2.096       .  S
O565        C572   1.270       .  A
O565      Cd1569   2.049   1_455  S
C567        O571   1.277       .  A
C568        C583   1.467       .  S
C570        C595   1.484       .  S
O571      Zn1062   2.095       .  S
C573       O1563   1.286       .  A
C573        O574   1.274       .  A
C575        N576   1.346       .  A
C575        N580   1.348       .  A
C575        C733   1.497       .  S
N576        C577   1.357       .  A
C577        N578   1.375       .  A
N578        C579   1.377       .  A
C579        N580   1.361       .  A
C579        C614   1.483       .  S
C581        N582   1.347       .  A
C581        N586   1.340       .  A
C581        C712   1.468       .  S
N582        C583   1.357       .  A
C583        N584   1.378       .  A
N584        C585   1.372       .  A
C585        N586   1.353       .  A
C585        C638   1.480       .  S
C587        N588   1.346       .  A
C587        N592   1.350       .  A
C587        C677   1.471       .  S
N588        C589   1.351       .  A
C589        N590   1.370       .  A
N590        C591   1.372       .  A
C591        N592   1.356       .  A
C591        C600   1.469       .  S
C593        N594   1.349       .  A
C593        N598   1.344       .  A
C593        C656   1.494       .  S
N594        C595   1.363       .  A
C595        N596   1.374       .  A
N596        C597   1.375       .  A
C597        N598   1.351       .  A
C597        C637   1.464       .  S
O599        C615   1.273       .  A
O599       Zn605   2.040       .  S
C600        O616   1.272       .  A
C600        O865   1.280       .  A
O601        C866   1.281       .  A
O601       Cd608   2.147       .  S
O602        C620   1.282       .  A
O602       Cd611   2.089       .  S
O603        C617   1.266       .  A
O603       Cd607   1.985       .  S
O604        C615   1.264       .  A
O604       Cd607   2.030       .  S
Zn605       O616   2.019       .  S
Zn605       O618   1.978       .  S
Zn605       O610   1.931       .  S
O606        C869   1.279       .  A
O606       Cd611   2.161       .  S
Cd607       O609   2.025       .  S
Cd607       O610   1.951       .  S
Cd608       O612   2.139       .  S
Cd608       O621   2.094       .  S
Cd608       O862   2.044       .  S
O609        C619   1.266       .  A
O610       Cd860   2.044       .  S
O610       Cd863   2.027       .  S
Cd611       O613   2.105       .  S
Cd611       O862   2.027       .  S
O612        C871   1.281       .  A
O613        C852   1.280       .  A
C614        O853   1.281       .  A
C614        O618   1.273       .  A
C615        C642   1.457       .  S
C617        C761   1.483       .  S
C617        O858   1.279       .  A
C619        O864   1.281       .  A
C620        C623   1.465       .  S
C620        O621   1.281       .  A
O622        C638   1.268       .  A
O622       Zn628   1.950       .  S
C623        O639   1.269       .  A
C623        O636   1.274       .  A
O624        C637   1.280       .  A
O624       Cd631   2.132       .  S
O625        C643   1.272       .  A
O625       Cd634   2.029       .  S
O626        C640   1.280       .  A
O626       Cd630   2.099       .  S
O627        C638   1.277       .  A
O627       Cd630   2.141       .  S
Zn628       O639   2.003       .  S
Zn628       O641   1.965       .  S
Zn628       O633   1.902       .  S
O629        C640   1.271       .  A
O629       Cd634   2.066       .  S
Cd630       O632   2.058       .  S
Cd630       O633   2.015       .  S
Cd631       O635   2.098       .  S
Cd631       O644   2.175       .  S
Cd631       O633   2.045       .  S
O632        C642   1.277       .  A
O633       Cd634   1.982       .  S
Cd634       O636   2.086       .  S
O635        C642   1.282       .  A
C637        O641   1.267       .  A
C643        O644   1.285       .  A
C645        C646   1.411       .  A
C645        C663   1.450       .  S
C646        C651   1.490       .  S
C646        C647   1.420       .  A
C647        C648   1.402       .  A
C647        C652   1.452       .  S
C648        C664   1.454       .  S
C649        C650   1.410       .  A
C650        C653   1.451       .  S
C651        C654   1.412       .  A
C651        C658   1.409       .  A
C652        N669   1.157       .  T
C653        N671   1.157       .  T
C654        C655   1.405       .  A
C654        C659   1.451       .  S
C655        C656   1.410       .  A
C655        C661   1.444       .  S
C656        C657   1.416       .  A
C657        C658   1.409       .  A
C657        C660   1.448       .  S
C658        C662   1.449       .  S
C660        N667   1.157       .  T
C661        N665   1.155       .  T
C662        N668   1.157       .  T
C664        N670   1.157       .  T
C673        C926   1.423       .  A
C673        C678   1.403       .  A
C673        C691   1.452       .  S
C674        C679   1.495       .  S
C674        C925   1.423       .  A
C674        C675   1.413       .  A
C675        C676   1.410       .  A
C675        C680   1.450       .  S
C676        C677   1.411       .  A
C676        C692   1.451       .  S
C677        C930   1.406       .  A
C678        C929   1.406       .  A
C678        C681   1.455   1_556  S
C679        C686   1.414       .  A
C680        N697   1.157       .  T
C681        N699   1.158       .  T
C682        C683   1.411       .  A
C682        C687   1.448       .  S
C683        C684   1.414       .  A
C683        C689   1.449       .  S
C685        C686   1.405       .  A
C685        C688   1.451       .  S
C686        C690   1.450       .  S
C687        N694   1.157       .  T
C688        N695   1.157       .  T
C689        N693   1.157       .  T
C690        N696   1.157       .  T
C691        N700   1.157       .  T
C692        N698   1.157       .  T
C701        C702   1.413   1_655  A
C701       C1714   1.405       .  A
C701        C719   1.450       .  S
C702        C707   1.492       .  S
C702        C703   1.412       .  A
C703       C1712   1.410   1_455  A
C703        C708   1.448       .  S
C704       C1711   1.410       .  A
C704        C705   1.410       .  A
C704        C720   1.443       .  S
C705        C706   1.406       .  A
C706       C1709   1.405       .  A
C706        C709   1.442       .  S
C707        C710   1.420       .  A
C707        C714   1.411       .  A
C708        N725   1.157       .  T
C709        N727   1.154       .  T
C710        C711   1.403       .  A
C710        C715   1.452       .  S
C711        C712   1.406       .  A
C711        C717   1.452       .  S
C712        C713   1.410       .  A
C713        C714   1.408       .  A
C713        C716   1.451       .  S
C714        C718   1.447       .  S
C715        N722   1.157       .  T
C716        N723   1.157       .  T
C717        N721   1.158       .  T
C718       N1732   1.156       .  T
C719        N728   1.157       .  T
C720        N726   1.155       .  T
N724       C1726   1.156       .  T
C729        C982   1.412       .  A
C729        C734   1.406       .  A
C729        C747   1.449       .  S
C730        C735   1.492       .  S
C730        C981   1.412       .  A
C730        C731   1.411       .  A
C731        C732   1.410       .  A
C731        C736   1.448       .  S
C732        C733   1.411       .  A
C732        C748   1.446       .  S
C733        C986   1.407       .  A
C734        C985   1.407       .  A
C734        C737   1.443       .  S
C735       C1998   1.417       .  A
C735        C742   1.411       .  A
C736        N753   1.157       .  T
C737        N755   1.155       .  T
C738       C1995   1.417       .  A
C738        C739   1.404       .  A
C738        C743   1.452       .  S
C739        C992   1.407       .  A
C739        C745   1.452   1_556  S
C740        C991   1.407       .  A
C740       C1749   1.409       .  A
C741       C1748   1.409       .  A
C741        C742   1.411   1_655  A
C741        C744   1.450       .  S
C742        C746   1.447       .  S
C743        N750   1.157   1_556  T
C744        N751   1.157       .  T
C745        N749   1.157       .  T
C746        N752   1.156       .  T
C747        N756   1.157       .  T
C748        N754   1.156       .  T
C757        N758   1.340   1_556  A
C757        N762   1.335   1_556  A
C757        C992   1.472       .  S
C759        N760   1.381       .  A
N760        C761   1.378       .  A
C763        N764   1.349       .  A
C763        N768   1.350       .  A
C763        C957   1.498       .  S
N764        C765   1.355       .  A
C765        N766   1.379       .  A
C765        C825   1.476       .  S
N766        C767   1.377       .  A
C767        N768   1.361       .  A
C767        C895   1.492       .  S
C769        N770   1.352       .  A
C769        N774   1.348       .  A
C769        C936   1.494       .  S
N770        C771   1.358   1_556  A
C771        N772   1.371       .  A
C771        C871   1.470       .  S
N772        C773   1.370       .  A
C773        N774   1.353   1_554  A
C773        C797   1.465       .  S
C775        N776   1.346       .  A
C775        N780   1.340       .  A
C775        C901   1.463       .  S
N776        C777   1.355       .  A
C777        N778   1.376       .  A
C777        C892   1.464       .  S
N778        C779   1.371       .  A
C779        N780   1.351       .  A
C779        C819   1.470       .  S
O781        C797   1.272       .  A
O781      Zn1291   2.010       .  S
C782        C805   1.469       .  S
C782        O798   1.272       .  A
C782        O795   1.272       .  A
O784        C802   1.273       .  A
O784       Cd793   2.066       .  S
O785       Cd789   2.141       .  S
O786       Cd789   2.099       .  S
Zn787      O1285   2.010   1_455  S
Zn787       O798   2.007   1_554  S
Zn787       O792   1.912       .  S
O788       C1807   1.273   1_455  A
O788       Cd793   2.024       .  S
Cd789      O1799   2.074       .  S
Cd789      O1548   2.026       .  S
Cd790       O794   2.078       .  S
Cd790       O803   2.095       .  S
O791        C801   1.280       .  A
O791      Cd1797   2.074   1_455  S
O792      Cd1545   2.026   1_455  S
O792       Cd793   1.980       .  S
Cd793       O795   2.074   1_554  S
O794        C801   1.280       .  A
C796        C829   1.485       .  S
C796        O800   1.271       .  A
C799       O1796   1.273       .  A
C801        C824   1.467       .  S
C802        C841   1.463       .  S
O804        C820   1.282       .  A
C805        O821   1.279       .  A
C805        O818   1.282       .  A
O806       Cd813   2.030       .  S
O807       C1833   1.286       .  A
O807       Cd816   2.142   1_655  S
O808        C822   1.269       .  A
O808       Cd812   2.014       .  S
O809        C820   1.270       .  A
Zn810       O821   2.015       .  S
Zn810      O1327   2.095   1_455  S
Zn810       O815   1.954       .  S
O811        C822   1.285       .  A
O811       Cd816   2.167       .  S
Cd812       O814   2.075       .  S
Cd812       O815   1.973       .  S
Cd813      O1825   2.049       .  S
Cd813       O826   2.069       .  S
Cd813      O1823   1.958       .  S
O814        C824   1.273       .  A
O815      Cd1821   1.958   1_455  S
O815       Cd816   2.022       .  S
Cd816       O818   2.096       .  S
O817        C824   1.270       .  A
O817      Cd1821   2.049   1_455  S
C819        O823   1.277       .  A
C820        C835   1.467       .  S
C822        C847   1.484       .  S
O823      Zn1314   2.095       .  S
C825       O1815   1.286       .  A
C825        O826   1.274       .  A
C827        N828   1.346       .  A
C827        N832   1.348       .  A
C827        C985   1.497       .  S
N828        C829   1.357   1_556  A
C829        N830   1.375       .  A
N830        C831   1.377       .  A
C831        N832   1.361   1_554  A
C831        C866   1.483       .  S
C833        N834   1.347       .  A
C833        N838   1.340       .  A
C833        C964   1.468       .  S
N834        C835   1.357       .  A
C835        N836   1.378       .  A
N836        C837   1.372       .  A
C837        N838   1.353       .  A
C837        C890   1.480       .  S
C839        N840   1.346       .  A
C839        N844   1.350       .  A
C839        C929   1.471   1_554  S
N840        C841   1.351       .  A
C841        N842   1.370       .  A
N842        C843   1.372       .  A
C843        N844   1.356       .  A
C843        C852   1.469       .  S
C845        N846   1.349       .  A
C845        N850   1.344       .  A
C845        C908   1.494       .  S
N846        C847   1.363       .  A
C847        N848   1.374       .  A
N848        C849   1.375       .  A
C849        N850   1.351       .  A
C849        C889   1.464       .  S
O851        C867   1.273       .  A
O851       Zn857   2.040   1_556  S
C852        O868   1.272       .  A
O853       Cd860   2.147       .  S
O854        C872   1.282       .  A
O854       Cd863   2.089       .  S
O855        C869   1.266       .  A
O855       Cd859   1.986       .  S
O856        C867   1.264       .  A
O856       Cd859   2.030   1_556  S
Zn857       O868   2.019       .  S
Zn857       O870   1.978       .  S
Zn857       O862   1.932       .  S
O858       Cd863   2.161       .  S
Cd859       O861   2.025       .  S
Cd859       O862   1.952       .  S
Cd860       O864   2.139       .  S
Cd860       O873   2.094       .  S
O861        C871   1.266       .  A
Cd863       O865   2.105       .  S
C866        O870   1.273       .  A
C867        C894   1.457       .  S
C872        C875   1.465       .  S
C872        O873   1.281       .  A
O874        C890   1.268       .  A
O874       Zn880   1.950       .  S
C875        O891   1.269       .  A
C875        O888   1.274       .  A
O876        C889   1.280       .  A
O876       Cd883   2.132       .  S
O877        C895   1.272       .  A
O877       Cd886   2.029       .  S
O878        C892   1.280       .  A
O878       Cd882   2.099       .  S
O879        C890   1.277       .  A
O879       Cd882   2.141       .  S
Zn880       O891   2.003       .  S
Zn880       O893   1.965       .  S
Zn880       O885   1.903       .  S
O881        C892   1.271       .  A
O881       Cd886   2.066       .  S
Cd882       O884   2.059       .  S
Cd882       O885   2.015       .  S
Cd883       O887   2.098       .  S
Cd883       O896   2.175       .  S
Cd883       O885   2.045       .  S
O884        C894   1.277       .  A
O885       Cd886   1.982       .  S
Cd886       O888   2.086       .  S
O887        C894   1.282       .  A
C889        O893   1.267       .  A
C895        O896   1.285       .  A
C897        C898   1.411       .  A
C897        C915   1.450       .  S
C898        C903   1.490       .  S
C898        C899   1.420       .  A
C899        C900   1.402       .  A
C899        C904   1.452       .  S
C900        C916   1.454       .  S
C901        C902   1.410       .  A
C902        C905   1.451       .  S
C903        C906   1.412       .  A
C903        C910   1.409       .  A
C904        N921   1.157       .  T
C905        N923   1.157       .  T
C906        C907   1.405       .  A
C906        C911   1.451       .  S
C907        C908   1.410       .  A
C907        C913   1.444       .  S
C908        C909   1.416       .  A
C909        C910   1.409       .  A
C909        C912   1.448       .  S
C910        C914   1.449       .  S
C912        N919   1.157       .  T
C913        N917   1.155       .  T
C914        N920   1.157       .  T
C916        N922   1.157       .  T
C925        C930   1.403       .  A
C925        C943   1.452       .  S
C926        C931   1.495       .  S
C926        C927   1.413       .  A
C927        C928   1.410       .  A
C927        C932   1.450       .  S
C928        C929   1.411       .  A
C928        C944   1.451       .  S
C930        C933   1.455       .  S
C931        C938   1.414       .  A
C932        N949   1.157       .  T
C933        N951   1.158       .  T
C934        C935   1.411       .  A
C934        C939   1.448       .  S
C935        C936   1.414       .  A
C935        C941   1.449       .  S
C937        C938   1.405       .  A
C937        C940   1.450       .  S
C938        C942   1.450       .  S
C939        N946   1.157       .  T
C940        N947   1.157       .  T
C941        N945   1.157       .  T
C942        N948   1.157       .  T
C943        N952   1.157       .  T
C944        N950   1.157       .  T
C953        C954   1.414   1_655  A
C953       C1966   1.405       .  A
C953        C971   1.450       .  S
C954        C959   1.492       .  S
C954        C955   1.412       .  A
C955       C1964   1.410   1_455  A
C955        C960   1.448       .  S
C956       C1963   1.410       .  A
C956        C957   1.410       .  A
C956        C972   1.443       .  S
C957        C958   1.406       .  A
C958       C1961   1.405       .  A
C958        C961   1.442       .  S
C959        C962   1.420       .  A
C959        C966   1.411       .  A
C960        N977   1.157       .  T
C961        N979   1.154       .  T
C962        C963   1.403       .  A
C962        C967   1.452       .  S
C963        C964   1.406       .  A
C963        C969   1.452       .  S
C964        C965   1.410       .  A
C965        C966   1.408       .  A
C965        C968   1.451       .  S
C966        C970   1.447       .  S
C967        N974   1.157       .  T
C968        N975   1.157       .  T
C969        N973   1.158       .  T
C970       N1984   1.156       .  T
C971        N980   1.157       .  T
C972        N978   1.155       .  T
N976       C1978   1.156       .  T
C981        C986   1.406       .  A
C981        C999   1.449       .  S
C982        C987   1.492       .  S
C982        C983   1.411       .  A
C983        C984   1.410       .  A
C983        C988   1.448       .  S
C984        C985   1.410       .  A
C984       C1000   1.446       .  S
C986        C989   1.443       .  S
C987       C1746   1.417       .  A
C987        C994   1.411       .  A
C988       N1005   1.157       .  T
C989       N1007   1.155       .  T
C990       C1743   1.417       .  A
C990        C991   1.404       .  A
C990        C995   1.452       .  S
C991        C997   1.452       .  S
C992       C2001   1.410       .  A
C993       C2000   1.410   1_455  A
C993        C994   1.411       .  A
C993        C996   1.450   1_455  S
C994        C998   1.447       .  S
C995       N1002   1.157       .  T
C996       N1003   1.157       .  T
C997       N1001   1.157       .  T
C998       N1004   1.156       .  T
C999       N1008   1.157       .  T
C1000      N1006   1.156       .  T
C1009      N1010   1.340       .  A
C1009      N1014   1.335       .  A
C1009      C1244   1.472       .  S
N1010      C1263   1.361       .  A
C1011      N1262   1.361       .  A
C1011      N1012   1.381       .  A
C1011      C1303   1.483       .  S
N1012      C1013   1.378       .  A
C1013      N1266   1.357       .  A
C1013      C1373   1.483       .  S
N1014      C1265   1.357       .  A
C1015      N1016   1.349       .  A
C1015      N1020   1.350       .  A
C1015      C1209   1.498       .  S
N1016      C1017   1.355       .  A
C1017      N1018   1.379       .  A
C1017      C1077   1.476       .  S
N1018      C1019   1.377       .  A
C1019      N1020   1.361       .  A
C1019      C1147   1.492       .  S
C1021      N1022   1.352       .  A
C1021      N1026   1.348       .  A
C1021      C1188   1.494       .  S
N1022      C1023   1.358       .  A
C1023      N1024   1.371       .  A
C1023      C1123   1.470       .  S
N1024      C1025   1.370       .  A
C1025      N1026   1.353       .  A
C1025      C1049   1.465       .  S
C1027      N1028   1.346       .  A
C1027      N1032   1.340       .  A
C1027      C1153   1.463       .  S
N1028      C1029   1.355       .  A
C1029      N1030   1.376       .  A
C1029      C1144   1.464       .  S
N1030      C1031   1.371       .  A
C1031      N1032   1.351       .  A
C1031      C1071   1.470       .  S
O1033      C1049   1.272       .  A
C1034      C1057   1.469       .  S
C1034      O1050   1.272       .  A
C1034      O1047   1.272       .  A
O1035      C1300   1.277       .  A
O1035     Cd1546   2.139       .  S
O1036      C1054   1.273       .  A
O1036     Cd1045   2.066       .  S
O1037      C1303   1.279       .  A
O1037     Cd1041   2.141       .  S
O1038      C1805   1.277   1_545  A
O1038     Cd1041   2.099       .  S
Zn1039     O1050   2.007   1_565  S
Zn1039     O1556   1.971       .  S
Zn1039     O1044   1.911   1_565  S
O1040     Cd1045   2.023       .  S
Cd1042     O1539   2.139   1_545  S
Cd1042     O1046   2.077       .  S
Cd1042     O1055   2.095       .  S
Cd1042     O1296   2.032       .  S
O1043      C1053   1.280       .  A
O1044     Cd1294   2.032       .  S
O1044     Cd1045   1.980       .  S
Cd1045     O1047   2.074       .  S
O1046      C1053   1.280       .  A
C1048      C1081   1.485       .  S
C1048      O1287   1.277       .  A
C1048      O1052   1.271       .  A
C1049      O1794   1.277       .  A
C1051      C1263   1.483       .  S
C1051      O1289   1.279       .  A
O1052     Zn1543   1.971       .  S
C1053      C1076   1.467       .  S
C1054      C1093   1.463       .  S
C1054      O1307   1.277       .  A
O1055      C1306   1.277       .  A
O1056      C1072   1.282       .  A
O1056     Zn1566   2.073       .  S
C1057      O1073   1.279       .  A
C1057      O1070   1.282       .  A
O1058      C1575   1.267       .  A
O1058     Cd1065   2.030   1_565  S
O1059     Cd1068   2.141       .  S
O1060      C1074   1.269       .  A
O1060     Cd1064   2.015       .  S
O1061      C1072   1.270       .  A
O1061     Cd1568   2.056       .  S
Zn1062     O1560   2.073       .  S
Zn1062     O1073   2.015   1_565  S
Zn1062     O1067   1.954   1_565  S
O1063      C1074   1.285       .  A
O1063     Cd1068   2.167       .  S
Cd1064     O1565   2.056   1_545  S
Cd1064     O1066   2.075       .  S
Cd1064     O1067   1.973       .  S
Cd1065     O1078   2.069       .  S
O1066      C1076   1.273       .  A
O1067     Cd1068   2.022       .  S
Cd1068     O1070   2.096       .  S
O1069      C1076   1.270       .  A
C1071      O1562   1.267       .  A
C1071      O1075   1.277       .  A
C1072      C1087   1.467       .  S
C1074      C1099   1.484       .  S
C1077      O1078   1.274       .  A
C1079      N1080   1.346       .  A
C1079      N1084   1.348       .  A
C1079      C1237   1.497       .  S
N1080      C1081   1.357       .  A
C1081      N1082   1.375       .  A
N1082      C1083   1.377       .  A
C1083      N1084   1.361       .  A
C1083      C1118   1.483       .  S
C1085      N1086   1.347       .  A
C1085      N1090   1.340       .  A
C1085      C1216   1.468       .  S
N1086      C1087   1.357       .  A
C1087      N1088   1.378       .  A
N1088      C1089   1.372       .  A
C1089      N1090   1.353       .  A
C1089      C1142   1.480       .  S
C1091      N1092   1.346       .  A
C1091      N1096   1.350       .  A
C1091      C1181   1.471       .  S
N1092      C1093   1.351       .  A
C1093      N1094   1.370       .  A
N1094      C1095   1.372       .  A
C1095      N1096   1.356       .  A
C1095      C1104   1.469       .  S
C1097      N1098   1.349       .  A
C1097      N1102   1.344       .  A
C1097      C1160   1.494       .  S
N1098      C1099   1.363       .  A
C1099      N1100   1.374       .  A
N1100      C1101   1.375       .  A
C1101      N1102   1.351       .  A
C1101      C1141   1.464       .  S
O1103      C1119   1.273       .  A
O1103     Zn1109   2.040       .  S
C1104      O1120   1.272       .  A
C1104      O1369   1.280       .  A
O1105      C1370   1.281       .  A
O1105     Cd1112   2.147       .  S
O1106      C1124   1.282       .  A
O1106     Cd1115   2.089       .  S
O1107      C1121   1.266       .  A
O1107     Cd1111   1.985       .  S
O1108      C1119   1.264       .  A
O1108     Cd1111   2.030       .  S
Zn1109     O1120   2.019       .  S
Zn1109     O1122   1.978       .  S
Zn1109     O1114   1.931       .  S
O1110      C1373   1.279       .  A
O1110     Cd1115   2.161       .  S
Cd1111     O1113   2.025       .  S
Cd1111     O1114   1.951       .  S
Cd1112     O1116   2.139       .  S
Cd1112     O1125   2.094       .  S
Cd1112     O1366   2.044       .  S
O1113      C1123   1.266       .  A
O1114     Cd1364   2.044       .  S
O1114     Cd1367   2.027       .  S
Cd1115     O1117   2.105       .  S
Cd1115     O1366   2.027       .  S
O1116      C1375   1.281       .  A
O1117      C1356   1.280       .  A
C1118      O1357   1.281       .  A
C1118      O1122   1.273       .  A
C1119      C1146   1.457       .  S
C1121      C1265   1.483       .  S
C1121      O1362   1.279       .  A
C1123      O1368   1.281       .  A
C1124      C1127   1.465       .  S
C1124      O1125   1.281       .  A
O1126      C1142   1.268       .  A
O1126     Zn1132   1.950       .  S
C1127      O1143   1.269       .  A
C1127      O1140   1.274       .  A
O1128      C1141   1.280       .  A
O1128     Cd1135   2.132       .  S
O1129      C1147   1.272       .  A
O1129     Cd1138   2.029       .  S
O1130      C1144   1.280       .  A
O1130     Cd1134   2.099       .  S
O1131      C1142   1.277       .  A
O1131     Cd1134   2.141       .  S
Zn1132     O1143   2.003       .  S
Zn1132     O1145   1.965       .  S
Zn1132     O1137   1.902       .  S
O1133      C1144   1.271       .  A
O1133     Cd1138   2.066       .  S
Cd1134     O1136   2.058       .  S
Cd1134     O1137   2.015       .  S
Cd1135     O1139   2.098       .  S
Cd1135     O1148   2.175       .  S
Cd1135     O1137   2.045       .  S
O1136      C1146   1.277       .  A
O1137     Cd1138   1.982       .  S
Cd1138     O1140   2.086       .  S
O1139      C1146   1.282       .  A
C1141      O1145   1.267       .  A
C1147      O1148   1.285       .  A
C1149      C1150   1.411       .  A
C1149      C1658   1.408   1_545  A
C1149      C1167   1.450       .  S
C1150      C1155   1.490       .  S
C1150      C1151   1.420       .  A
C1151      C1152   1.402       .  A
C1151      C1156   1.452       .  S
C1152      C1657   1.404   1_545  A
C1152      C1168   1.454       .  S
C1153      C1656   1.404       .  A
C1153      C1154   1.410       .  A
C1154      C1653   1.408       .  A
C1154      C1157   1.451       .  S
C1155      C1158   1.412       .  A
C1155      C1162   1.409       .  A
C1156      N1173   1.157       .  T
C1157      N1175   1.157       .  T
C1158      C1159   1.405       .  A
C1158      C1163   1.451       .  S
C1159      C1160   1.410       .  A
C1159      C1165   1.444       .  S
C1160      C1161   1.416       .  A
C1161      C1162   1.409       .  A
C1161      C1164   1.448       .  S
C1162      C1166   1.449       .  S
C1163      N1674   1.157   1_545  T
C1164      N1171   1.157       .  T
C1165      N1169   1.155       .  T
C1166      N1172   1.157       .  T
C1167      N1680   1.157   1_545  T
C1168      N1174   1.157       .  T
N1170      C1667   1.157       .  T
N1176      C1671   1.157       .  T
C1177      C1430   1.423       .  A
C1177      C1182   1.403       .  A
C1177      C1195   1.452   1_545  S
C1178      C1183   1.495       .  S
C1178      C1429   1.423       .  A
C1178      C1179   1.413       .  A
C1179      C1180   1.410       .  A
C1179      C1184   1.450       .  S
C1180      C1181   1.411       .  A
C1180      C1196   1.451       .  S
C1181      C1434   1.406       .  A
C1182      C1433   1.406       .  A
C1182      C1185   1.455   1_556  S
C1183      C1690   1.410   1_545  A
C1183      C1190   1.414       .  A
C1184      N1201   1.157       .  T
C1185      N1203   1.158       .  T
C1186      C1687   1.410       .  A
C1186      C1187   1.411       .  A
C1186      C1191   1.448       .  S
C1187      C1188   1.414       .  A
C1187      C1193   1.449       .  S
C1188      C1693   1.414       .  A
C1189      C1692   1.414   1_545  A
C1189      C1190   1.405       .  A
C1189      C1192   1.451       .  S
C1190      C1194   1.450       .  S
C1191      N1198   1.157       .  T
C1192      N1199   1.157       .  T
C1193      N1197   1.157       .  T
C1194      N1200   1.157       .  T
C1195      N1204   1.157       .  T
C1196      N1202   1.157       .  T
C1205      C1206   1.413       .  A
C1205      C1223   1.450       .  S
C1206      C1211   1.492       .  S
C1206      C1207   1.412       .  A
C1207      C1212   1.448       .  S
C1208      C1209   1.410       .  A
C1208      C1224   1.443       .  S
C1209      C1210   1.406       .  A
C1210      C1213   1.442       .  S
C1211      C1214   1.420       .  A
C1211      C1218   1.411       .  A
C1212      N1229   1.157       .  T
C1213      N1231   1.154       .  T
C1214      C1215   1.403       .  A
C1214      C1219   1.452       .  S
C1215      C1216   1.406       .  A
C1215      C1221   1.452       .  S
C1216      C1217   1.410       .  A
C1217      C1218   1.408       .  A
C1217      C1220   1.451       .  S
C1218      C1222   1.447       .  S
C1219      N1226   1.157       .  T
C1220      N1227   1.157       .  T
C1221      N1225   1.158       .  T
C1223      N1232   1.157       .  T
C1224      N1230   1.155       .  T
C1233      C1486   1.412       .  A
C1233      C1238   1.406       .  A
C1233      C1251   1.449       .  S
C1234      C1239   1.492       .  S
C1234      C1485   1.412       .  A
C1234      C1235   1.411       .  A
C1235      C1236   1.410       .  A
C1235      C1240   1.448       .  S
C1236      C1237   1.411       .  A
C1236      C1252   1.446       .  S
C1237      C1490   1.407       .  A
C1238      C1489   1.407       .  A
C1238      C1241   1.443       .  S
C1239      C1246   1.411       .  A
C1240      N1257   1.157       .  T
C1241      N1259   1.155       .  T
C1242      C1243   1.404       .  A
C1242      C1247   1.452       .  S
C1243      C1496   1.407   1_455  A
C1243      C1249   1.452   1_456  S
C1244      C1495   1.407   1_655  A
C1245      C1246   1.411       .  A
C1245      C1248   1.450       .  S
C1246      C1250   1.447       .  S
C1247      N1254   1.157   1_556  T
C1248      N1255   1.157       .  T
C1249      N1253   1.157       .  T
C1250      N1256   1.156       .  T
C1251      N1260   1.157       .  T
C1252      N1258   1.156       .  T
C1261      N1262   1.340   1_556  A
C1261      N1266   1.335   1_556  A
C1261      C1496   1.472       .  S
C1263      N1264   1.381       .  A
N1264      C1265   1.378       .  A
C1267      N1268   1.349       .  A
C1267      N1272   1.350       .  A
C1267      C1461   1.498       .  S
N1268      C1269   1.355       .  A
C1269      N1270   1.379       .  A
C1269      C1329   1.476       .  S
N1270      C1271   1.377       .  A
C1271      N1272   1.361       .  A
C1271      C1399   1.492       .  S
C1273      N1274   1.352       .  A
C1273      N1278   1.348       .  A
C1273      C1440   1.494       .  S
N1274      C1275   1.358   1_556  A
C1275      N1276   1.371       .  A
C1275      C1375   1.470       .  S
N1276      C1277   1.370       .  A
C1277      N1278   1.353   1_554  A
C1277      C1301   1.465       .  S
C1279      N1280   1.346       .  A
C1279      N1284   1.340       .  A
C1279      C1405   1.463       .  S
N1280      C1281   1.355       .  A
C1281      N1282   1.376       .  A
C1281      C1396   1.464       .  S
N1282      C1283   1.371       .  A
C1283      N1284   1.351       .  A
C1283      C1323   1.470       .  S
O1285      C1301   1.272       .  A
C1286      C1309   1.469       .  S
C1286      O1302   1.272       .  A
C1286      O1299   1.272       .  A
O1287     Cd1798   2.139       .  S
O1288      C1306   1.273       .  A
O1288     Cd1297   2.066       .  S
O1289     Cd1293   2.141       .  S
O1290      C1553   1.277   1_545  A
O1290     Cd1293   2.099       .  S
Zn1291     O1302   2.007   1_564  S
Zn1291     O1808   1.971       .  S
Zn1291     O1296   1.912   1_565  S
O1292     Cd1297   2.024       .  S
Cd1294     O1791   2.139   1_545  S
Cd1294     O1298   2.078       .  S
Cd1294     O1307   2.095       .  S
O1295      C1305   1.280       .  A
O1296     Cd1297   1.980       .  S
Cd1297     O1299   2.074   1_554  S
O1298      C1305   1.280       .  A
C1300      C1333   1.485       .  S
C1300      O1304   1.271       .  A
C1301      O1542   1.277       .  A
O1304     Zn1795   1.971       .  S
C1305      C1328   1.467       .  S
C1306      C1345   1.463       .  S
O1308      C1324   1.282       .  A
O1308     Zn1818   2.073       .  S
C1309      O1325   1.279       .  A
C1309      O1322   1.282       .  A
O1310      C1827   1.267       .  A
O1310     Cd1317   2.030   1_565  S
O1311     Cd1320   2.142       .  S
O1312      C1326   1.269       .  A
O1312     Cd1316   2.014       .  S
O1313      C1324   1.270       .  A
O1313     Cd1820   2.055       .  S
Zn1314     O1812   2.073       .  S
Zn1314     O1325   2.015   1_565  S
Zn1314     O1319   1.954   1_565  S
O1315      C1326   1.285       .  A
O1315     Cd1320   2.167       .  S
Cd1316     O1817   2.055   1_545  S
Cd1316     O1318   2.075       .  S
Cd1316     O1319   1.973       .  S
Cd1317     O1330   2.069       .  S
O1318      C1328   1.273       .  A
O1319     Cd1320   2.022       .  S
Cd1320     O1322   2.096       .  S
O1321      C1328   1.270       .  A
C1323      O1814   1.267       .  A
C1323      O1327   1.277       .  A
C1324      C1339   1.467       .  S
C1326      C1351   1.484       .  S
C1329      O1330   1.274       .  A
C1331      N1332   1.346       .  A
C1331      N1336   1.348       .  A
C1331      C1489   1.497       .  S
N1332      C1333   1.357   1_556  A
C1333      N1334   1.375       .  A
N1334      C1335   1.377       .  A
C1335      N1336   1.361   1_554  A
C1335      C1370   1.483       .  S
C1337      N1338   1.347       .  A
C1337      N1342   1.340       .  A
C1337      C1468   1.468       .  S
N1338      C1339   1.357       .  A
C1339      N1340   1.378       .  A
N1340      C1341   1.372       .  A
C1341      N1342   1.353       .  A
C1341      C1394   1.480       .  S
C1343      N1344   1.346       .  A
C1343      N1348   1.350       .  A
C1343      C1433   1.471   1_554  S
N1344      C1345   1.351       .  A
C1345      N1346   1.370       .  A
N1346      C1347   1.372       .  A
C1347      N1348   1.356       .  A
C1347      C1356   1.469       .  S
C1349      N1350   1.349       .  A
C1349      N1354   1.344       .  A
C1349      C1412   1.494       .  S
N1350      C1351   1.363       .  A
C1351      N1352   1.374       .  A
N1352      C1353   1.375       .  A
C1353      N1354   1.351       .  A
C1353      C1393   1.464       .  S
O1355      C1371   1.273       .  A
O1355     Zn1361   2.040   1_556  S
C1356      O1372   1.272       .  A
O1357     Cd1364   2.147       .  S
O1358      C1376   1.282       .  A
O1358     Cd1367   2.089       .  S
O1359      C1373   1.266       .  A
O1359     Cd1363   1.986       .  S
O1360      C1371   1.264       .  A
O1360     Cd1363   2.030   1_556  S
Zn1361     O1372   2.019       .  S
Zn1361     O1374   1.978       .  S
Zn1361     O1366   1.932       .  S
O1362     Cd1367   2.161       .  S
Cd1363     O1365   2.025       .  S
Cd1363     O1366   1.952       .  S
Cd1364     O1368   2.139       .  S
Cd1364     O1377   2.094       .  S
O1365      C1375   1.266       .  A
Cd1367     O1369   2.105       .  S
C1370      O1374   1.273       .  A
C1371      C1398   1.457       .  S
C1376      C1379   1.465       .  S
C1376      O1377   1.281       .  A
O1378      C1394   1.268       .  A
O1378     Zn1384   1.950       .  S
C1379      O1395   1.269       .  A
C1379      O1392   1.274       .  A
O1380      C1393   1.280       .  A
O1380     Cd1387   2.132       .  S
O1381      C1399   1.272       .  A
O1381     Cd1390   2.029       .  S
O1382      C1396   1.280       .  A
O1382     Cd1386   2.099       .  S
O1383      C1394   1.277       .  A
O1383     Cd1386   2.141       .  S
Zn1384     O1395   2.003       .  S
Zn1384     O1397   1.965       .  S
Zn1384     O1389   1.903       .  S
O1385      C1396   1.271       .  A
O1385     Cd1390   2.066       .  S
Cd1386     O1388   2.059       .  S
Cd1386     O1389   2.015       .  S
Cd1387     O1391   2.098       .  S
Cd1387     O1400   2.175       .  S
Cd1387     O1389   2.045       .  S
O1388      C1398   1.277       .  A
O1389     Cd1390   1.982       .  S
Cd1390     O1392   2.086       .  S
O1391      C1398   1.282       .  A
C1393      O1397   1.267       .  A
C1399      O1400   1.285       .  A
C1401      C1402   1.411       .  A
C1401      C1910   1.408   1_545  A
C1401      C1419   1.450       .  S
C1402      C1407   1.490       .  S
C1402      C1403   1.420       .  A
C1403      C1404   1.402       .  A
C1403      C1408   1.452       .  S
C1404      C1909   1.404   1_545  A
C1404      C1420   1.454       .  S
C1405      C1908   1.404       .  A
C1405      C1406   1.410       .  A
C1406      C1905   1.408       .  A
C1406      C1409   1.451       .  S
C1407      C1410   1.412       .  A
C1407      C1414   1.409       .  A
C1408      N1425   1.157       .  T
C1409      N1427   1.157       .  T
C1410      C1411   1.405       .  A
C1410      C1415   1.451       .  S
C1411      C1412   1.410       .  A
C1411      C1417   1.444       .  S
C1412      C1413   1.416       .  A
C1413      C1414   1.409       .  A
C1413      C1416   1.448       .  S
C1414      C1418   1.449       .  S
C1415      N1926   1.157   1_545  T
C1416      N1423   1.157       .  T
C1417      N1421   1.155       .  T
C1418      N1424   1.157       .  T
C1419      N1932   1.157   1_545  T
C1420      N1426   1.157       .  T
N1422      C1919   1.157       .  T
N1428      C1923   1.157       .  T
C1429      C1434   1.403       .  A
C1429      C1447   1.452   1_545  S
C1430      C1435   1.495       .  S
C1430      C1431   1.413       .  A
C1431      C1432   1.410       .  A
C1431      C1436   1.450       .  S
C1432      C1433   1.411       .  A
C1432      C1448   1.451       .  S
C1434      C1437   1.455       .  S
C1435      C1942   1.411   1_545  A
C1435      C1442   1.414       .  A
C1436      N1453   1.157       .  T
C1437      N1455   1.158       .  T
C1438      C1939   1.411       .  A
C1438      C1439   1.411       .  A
C1438      C1443   1.448       .  S
C1439      C1440   1.414       .  A
C1439      C1445   1.449       .  S
C1440      C1945   1.414       .  A
C1441      C1944   1.414   1_545  A
C1441      C1442   1.405       .  A
C1441      C1444   1.450       .  S
C1442      C1446   1.450       .  S
C1443      N1450   1.157       .  T
C1444      N1451   1.157       .  T
C1445      N1449   1.157       .  T
C1446      N1452   1.157       .  T
C1447      N1456   1.157       .  T
C1448      N1454   1.157       .  T
C1457      C1458   1.414       .  A
C1457      C1475   1.450       .  S
C1458      C1463   1.492       .  S
C1458      C1459   1.412       .  A
C1459      C1464   1.448       .  S
C1460      C1461   1.410       .  A
C1460      C1476   1.443       .  S
C1461      C1462   1.406       .  A
C1462      C1465   1.442       .  S
C1463      C1466   1.420       .  A
C1463      C1470   1.411       .  A
C1464      N1481   1.157       .  T
C1465      N1483   1.154       .  T
C1466      C1467   1.403       .  A
C1466      C1471   1.452       .  S
C1467      C1468   1.406       .  A
C1467      C1473   1.452       .  S
C1468      C1469   1.410       .  A
C1469      C1470   1.408       .  A
C1469      C1472   1.451       .  S
C1470      C1474   1.447       .  S
C1471      N1478   1.157       .  T
C1472      N1479   1.157       .  T
C1473      N1477   1.158       .  T
C1475      N1484   1.157       .  T
C1476      N1482   1.155       .  T
C1485      C1490   1.406       .  A
C1485      C1503   1.449       .  S
C1486      C1491   1.492       .  S
C1486      C1487   1.411       .  A
C1487      C1488   1.410       .  A
C1487      C1492   1.448       .  S
C1488      C1489   1.410       .  A
C1488      C1504   1.446       .  S
C1490      C1493   1.443       .  S
C1491      C1498   1.411       .  A
C1492      N1509   1.157       .  T
C1493      N1511   1.155       .  T
C1494      C1495   1.404       .  A
C1494      C1499   1.452       .  S
C1495      C1501   1.452   1_455  S
C1497      C1498   1.411       .  A
C1497      C1500   1.450       .  S
C1498      C1502   1.447       .  S
C1499      N1506   1.157       .  T
C1500      N1507   1.157       .  T
C1501      N1505   1.157       .  T
C1502      N1508   1.156       .  T
C1503      N1512   1.157       .  T
C1504      N1510   1.156       .  T
C1513      N1514   1.340       .  A
C1513      N1518   1.335       .  A
C1513      C1748   1.472       .  S
N1514      C1767   1.361       .  A
C1515      N1766   1.361       .  A
C1515      N1516   1.381       .  A
C1515      C1807   1.483       .  S
N1516      C1517   1.378       .  A
C1517      N1770   1.357       .  A
C1517      C1877   1.483       .  S
N1518      C1769   1.357       .  A
C1519      N1520   1.349       .  A
C1519      N1524   1.350       .  A
C1519      C1713   1.498       .  S
N1520      C1521   1.355       .  A
C1521      N1522   1.379       .  A
C1521      C1581   1.476       .  S
N1522      C1523   1.377       .  A
C1523      N1524   1.361       .  A
C1523      C1651   1.492       .  S
C1525      N1526   1.352       .  A
C1525      N1530   1.348       .  A
C1525      C1692   1.494       .  S
N1526      C1527   1.358       .  A
C1527      N1528   1.371       .  A
C1527      C1627   1.470       .  S
N1528      C1529   1.370       .  A
C1529      N1530   1.353       .  A
C1529      C1553   1.465       .  S
C1531      N1532   1.346       .  A
C1531      N1536   1.340       .  A
C1531      C1657   1.463       .  S
N1532      C1533   1.355       .  A
C1533      N1534   1.376       .  A
C1533      C1648   1.464       .  S
N1534      C1535   1.371       .  A
C1535      N1536   1.351       .  A
C1535      C1575   1.470       .  S
O1537      C1553   1.272       .  A
C1538      C1561   1.469       .  S
C1538      O1554   1.272       .  A
C1538      O1551   1.272       .  A
O1539      C1804   1.277       .  A
O1540      C1558   1.273       .  A
O1540     Cd1549   2.065       .  S
O1541      C1807   1.279       .  A
O1541     Cd1545   2.141       .  S
O1542     Cd1545   2.099       .  S
Zn1543     O1554   2.007       .  S
Zn1543     O1548   1.911       .  S
O1544     Cd1549   2.023       .  S
Cd1546     O1550   2.077       .  S
Cd1546     O1559   2.095       .  S
Cd1546     O1800   2.032       .  S
O1547      C1557   1.280       .  A
O1548     Cd1798   2.032       .  S
O1548     Cd1549   1.980       .  S
Cd1549     O1551   2.074       .  S
O1550      C1557   1.280       .  A
C1552      C1585   1.485       .  S
C1552      O1791   1.277       .  A
C1552      O1556   1.271       .  A
C1555      C1767   1.483       .  S
C1555      O1793   1.279       .  A
C1557      C1580   1.467       .  S
C1558      C1597   1.463       .  S
C1558      O1811   1.277       .  A
O1559      C1810   1.277       .  A
O1560      C1576   1.282       .  A
C1561      O1577   1.279       .  A
C1561      O1574   1.282       .  A
O1562     Cd1569   2.030       .  S
O1563     Cd1572   2.141       .  S
O1564      C1578   1.269       .  A
O1564     Cd1568   2.015       .  S
O1565      C1576   1.270       .  A
Zn1566     O1577   2.015       .  S
Zn1566     O1571   1.954       .  S
O1567      C1578   1.285       .  A
O1567     Cd1572   2.167       .  S
Cd1568     O1570   2.075       .  S
Cd1568     O1571   1.973       .  S
Cd1569     O1582   2.069       .  S
O1570      C1580   1.273       .  A
O1571     Cd1572   2.022       .  S
Cd1572     O1574   2.096       .  S
O1573      C1580   1.270       .  A
C1575      O1579   1.277       .  A
C1576      C1591   1.467       .  S
C1578      C1603   1.484       .  S
C1581      O1582   1.274       .  A
C1583      N1584   1.346       .  A
C1583      N1588   1.348       .  A
C1583      C1741   1.497       .  S
N1584      C1585   1.357       .  A
C1585      N1586   1.375       .  A
N1586      C1587   1.377       .  A
C1587      N1588   1.361       .  A
C1587      C1622   1.483       .  S
C1589      N1590   1.347       .  A
C1589      N1594   1.340       .  A
C1589      C1720   1.468       .  S
N1590      C1591   1.357       .  A
C1591      N1592   1.378       .  A
N1592      C1593   1.372       .  A
C1593      N1594   1.353       .  A
C1593      C1646   1.480       .  S
C1595      N1596   1.346       .  A
C1595      N1600   1.350       .  A
C1595      C1685   1.471       .  S
N1596      C1597   1.351       .  A
C1597      N1598   1.370       .  A
N1598      C1599   1.372       .  A
C1599      N1600   1.356       .  A
C1599      C1608   1.469       .  S
C1601      N1602   1.349       .  A
C1601      N1606   1.344       .  A
C1601      C1664   1.494       .  S
N1602      C1603   1.363       .  A
C1603      N1604   1.374       .  A
N1604      C1605   1.375       .  A
C1605      N1606   1.351       .  A
C1605      C1645   1.464       .  S
O1607      C1623   1.273       .  A
O1607     Zn1613   2.040       .  S
C1608      O1624   1.272       .  A
C1608      O1873   1.280       .  A
O1609      C1874   1.281       .  A
O1609     Cd1616   2.147       .  S
O1610      C1628   1.282       .  A
O1610     Cd1619   2.089       .  S
O1611      C1625   1.266       .  A
O1611     Cd1615   1.985       .  S
O1612      C1623   1.264       .  A
O1612     Cd1615   2.030       .  S
Zn1613     O1624   2.019       .  S
Zn1613     O1626   1.978       .  S
Zn1613     O1618   1.931       .  S
O1614      C1877   1.279       .  A
O1614     Cd1619   2.161       .  S
Cd1615     O1617   2.025       .  S
Cd1615     O1618   1.951       .  S
Cd1616     O1620   2.139       .  S
Cd1616     O1629   2.094       .  S
Cd1616     O1870   2.044       .  S
O1617      C1627   1.266       .  A
O1618     Cd1868   2.044       .  S
O1618     Cd1871   2.027       .  S
Cd1619     O1621   2.105       .  S
Cd1619     O1870   2.027       .  S
O1620      C1879   1.281       .  A
O1621      C1860   1.280       .  A
C1622      O1861   1.281       .  A
C1622      O1626   1.273       .  A
C1623      C1650   1.457       .  S
C1625      C1769   1.483       .  S
C1625      O1866   1.279       .  A
C1627      O1872   1.281       .  A
C1628      C1631   1.465       .  S
C1628      O1629   1.281       .  A
O1630      C1646   1.268       .  A
O1630     Zn1636   1.950       .  S
C1631      O1647   1.269       .  A
C1631      O1644   1.274       .  A
O1632      C1645   1.280       .  A
O1632     Cd1639   2.132       .  S
O1633      C1651   1.272       .  A
O1633     Cd1642   2.029       .  S
O1634      C1648   1.280       .  A
O1634     Cd1638   2.099       .  S
O1635      C1646   1.277       .  A
O1635     Cd1638   2.141       .  S
Zn1636     O1647   2.003       .  S
Zn1636     O1649   1.965       .  S
Zn1636     O1641   1.902       .  S
O1637      C1648   1.271       .  A
O1637     Cd1642   2.066       .  S
Cd1638     O1640   2.058       .  S
Cd1638     O1641   2.015       .  S
Cd1639     O1643   2.098       .  S
Cd1639     O1652   2.175       .  S
Cd1639     O1641   2.045       .  S
O1640      C1650   1.277       .  A
O1641     Cd1642   1.982       .  S
Cd1642     O1644   2.086       .  S
O1643      C1650   1.282       .  A
C1645      O1649   1.267       .  A
C1651      O1652   1.285       .  A
C1653      C1654   1.411       .  A
C1653      C1671   1.450       .  S
C1654      C1659   1.490       .  S
C1654      C1655   1.420       .  A
C1655      C1656   1.402       .  A
C1655      C1660   1.452       .  S
C1656      C1672   1.454       .  S
C1657      C1658   1.410       .  A
C1658      C1661   1.451       .  S
C1659      C1662   1.412       .  A
C1659      C1666   1.409       .  A
C1660      N1677   1.157       .  T
C1661      N1679   1.157       .  T
C1662      C1663   1.405       .  A
C1662      C1667   1.451       .  S
C1663      C1664   1.410       .  A
C1663      C1669   1.444       .  S
C1664      C1665   1.416       .  A
C1665      C1666   1.409       .  A
C1665      C1668   1.448       .  S
C1666      C1670   1.449       .  S
C1668      N1675   1.157       .  T
C1669      N1673   1.155       .  T
C1670      N1676   1.157       .  T
C1672      N1678   1.157       .  T
C1681      C1934   1.423       .  A
C1681      C1686   1.403       .  A
C1681      C1699   1.452       .  S
C1682      C1687   1.495       .  S
C1682      C1933   1.423       .  A
C1682      C1683   1.413       .  A
C1683      C1684   1.410       .  A
C1683      C1688   1.450       .  S
C1684      C1685   1.411       .  A
C1684      C1700   1.451       .  S
C1685      C1938   1.406       .  A
C1686      C1937   1.406       .  A
C1686      C1689   1.455   1_556  S
C1687      C1694   1.414       .  A
C1688      N1705   1.157       .  T
C1689      N1707   1.158       .  T
C1690      C1691   1.411       .  A
C1690      C1695   1.448       .  S
C1691      C1692   1.414       .  A
C1691      C1697   1.449       .  S
C1693      C1694   1.405       .  A
C1693      C1696   1.451       .  S
C1694      C1698   1.450       .  S
C1695      N1702   1.157       .  T
C1696      N1703   1.157       .  T
C1697      N1701   1.157       .  T
C1698      N1704   1.157       .  T
C1699      N1708   1.157       .  T
C1700      N1706   1.157       .  T
C1709      C1710   1.413       .  A
C1709      C1727   1.450       .  S
C1710      C1715   1.492       .  S
C1710      C1711   1.412       .  A
C1711      C1716   1.448       .  S
C1712      C1713   1.410       .  A
C1712      C1728   1.443       .  S
C1713      C1714   1.406       .  A
C1714      C1717   1.442       .  S
C1715      C1718   1.420       .  A
C1715      C1722   1.411       .  A
C1716      N1733   1.157       .  T
C1717      N1735   1.154       .  T
C1718      C1719   1.403       .  A
C1718      C1723   1.452       .  S
C1719      C1720   1.406       .  A
C1719      C1725   1.452       .  S
C1720      C1721   1.410       .  A
C1721      C1722   1.408       .  A
C1721      C1724   1.451       .  S
C1722      C1726   1.447       .  S
C1723      N1730   1.157       .  T
C1724      N1731   1.157       .  T
C1725      N1729   1.158       .  T
C1727      N1736   1.157       .  T
C1728      N1734   1.155       .  T
C1737      C1990   1.412       .  A
C1737      C1742   1.406       .  A
C1737      C1755   1.449       .  S
C1738      C1743   1.492       .  S
C1738      C1989   1.412       .  A
C1738      C1739   1.411       .  A
C1739      C1740   1.410       .  A
C1739      C1744   1.448       .  S
C1740      C1741   1.411       .  A
C1740      C1756   1.446       .  S
C1741      C1994   1.407       .  A
C1742      C1993   1.407       .  A
C1742      C1745   1.443       .  S
C1743      C1750   1.411       .  A
C1744      N1761   1.157       .  T
C1745      N1763   1.155       .  T
C1746      C1747   1.404       .  A
C1746      C1751   1.452       .  S
C1747      C2000   1.407   1_455  A
C1747      C1753   1.452   1_456  S
C1748      C1999   1.407   1_655  A
C1749      C1750   1.411       .  A
C1749      C1752   1.450       .  S
C1750      C1754   1.447       .  S
C1751      N1758   1.157   1_556  T
C1752      N1759   1.157       .  T
C1753      N1757   1.157       .  T
C1754      N1760   1.156       .  T
C1755      N1764   1.157       .  T
C1756      N1762   1.156       .  T
C1765      N1766   1.340   1_556  A
C1765      N1770   1.335   1_556  A
C1765      C2000   1.472       .  S
C1767      N1768   1.381       .  A
N1768      C1769   1.378       .  A
C1771      N1772   1.349       .  A
C1771      N1776   1.350       .  A
C1771      C1965   1.498       .  S
N1772      C1773   1.355       .  A
C1773      N1774   1.379       .  A
C1773      C1833   1.476       .  S
N1774      C1775   1.377       .  A
C1775      N1776   1.361       .  A
C1775      C1903   1.492       .  S
C1777      N1778   1.352       .  A
C1777      N1782   1.348       .  A
C1777      C1944   1.494       .  S
N1778      C1779   1.358   1_556  A
C1779      N1780   1.371       .  A
C1779      C1879   1.470       .  S
N1780      C1781   1.370       .  A
C1781      N1782   1.353   1_554  A
C1781      C1805   1.465       .  S
C1783      N1784   1.346       .  A
C1783      N1788   1.340       .  A
C1783      C1909   1.463       .  S
N1784      C1785   1.355       .  A
C1785      N1786   1.376       .  A
C1785      C1900   1.464       .  S
N1786      C1787   1.371       .  A
C1787      N1788   1.351       .  A
C1787      C1827   1.470       .  S
O1789      C1805   1.272       .  A
C1790      C1813   1.469       .  S
C1790      O1806   1.272       .  A
C1790      O1803   1.272       .  A
O1792      C1810   1.273       .  A
O1792     Cd1801   2.066       .  S
O1793     Cd1797   2.141       .  S
O1794     Cd1797   2.099       .  S
Zn1795     O1806   2.007   1_554  S
Zn1795     O1800   1.912       .  S
O1796     Cd1801   2.024       .  S
Cd1798     O1802   2.078       .  S
Cd1798     O1811   2.095       .  S
O1799      C1809   1.280       .  A
O1800     Cd1801   1.980       .  S
Cd1801     O1803   2.074   1_554  S
O1802      C1809   1.280       .  A
C1804      C1837   1.485       .  S
C1804      O1808   1.271       .  A
C1809      C1832   1.467       .  S
C1810      C1849   1.463       .  S
O1812      C1828   1.282       .  A
C1813      O1829   1.279       .  A
C1813      O1826   1.282       .  A
O1814     Cd1821   2.030       .  S
O1815     Cd1824   2.142       .  S
O1816      C1830   1.269       .  A
O1816     Cd1820   2.014       .  S
O1817      C1828   1.270       .  A
Zn1818     O1829   2.015       .  S
Zn1818     O1823   1.954       .  S
O1819      C1830   1.285       .  A
O1819     Cd1824   2.167       .  S
Cd1820     O1822   2.075       .  S
Cd1820     O1823   1.973       .  S
Cd1821     O1834   2.069       .  S
O1822      C1832   1.273       .  A
O1823     Cd1824   2.022       .  S
Cd1824     O1826   2.096       .  S
O1825      C1832   1.270       .  A
C1827      O1831   1.277       .  A
C1828      C1843   1.467       .  S
C1830      C1855   1.484       .  S
C1833      O1834   1.274       .  A
C1835      N1836   1.346       .  A
C1835      N1840   1.348       .  A
C1835      C1993   1.497       .  S
N1836      C1837   1.357   1_556  A
C1837      N1838   1.375       .  A
N1838      C1839   1.377       .  A
C1839      N1840   1.361   1_554  A
C1839      C1874   1.483       .  S
C1841      N1842   1.347       .  A
C1841      N1846   1.340       .  A
C1841      C1972   1.468       .  S
N1842      C1843   1.357       .  A
C1843      N1844   1.378       .  A
N1844      C1845   1.372       .  A
C1845      N1846   1.353       .  A
C1845      C1898   1.480       .  S
C1847      N1848   1.346       .  A
C1847      N1852   1.350       .  A
C1847      C1937   1.471   1_554  S
N1848      C1849   1.351       .  A
C1849      N1850   1.370       .  A
N1850      C1851   1.372       .  A
C1851      N1852   1.356       .  A
C1851      C1860   1.469       .  S
C1853      N1854   1.349       .  A
C1853      N1858   1.344       .  A
C1853      C1916   1.494       .  S
N1854      C1855   1.363       .  A
C1855      N1856   1.374       .  A
N1856      C1857   1.375       .  A
C1857      N1858   1.351       .  A
C1857      C1897   1.464       .  S
O1859      C1875   1.273       .  A
O1859     Zn1865   2.040   1_556  S
C1860      O1876   1.272       .  A
O1861     Cd1868   2.147       .  S
O1862      C1880   1.282       .  A
O1862     Cd1871   2.089       .  S
O1863      C1877   1.266       .  A
O1863     Cd1867   1.986       .  S
O1864      C1875   1.264       .  A
O1864     Cd1867   2.030   1_556  S
Zn1865     O1876   2.019       .  S
Zn1865     O1878   1.978       .  S
Zn1865     O1870   1.932       .  S
O1866     Cd1871   2.161       .  S
Cd1867     O1869   2.025       .  S
Cd1867     O1870   1.952       .  S
Cd1868     O1872   2.139       .  S
Cd1868     O1881   2.094       .  S
O1869      C1879   1.266       .  A
Cd1871     O1873   2.105       .  S
C1874      O1878   1.273       .  A
C1875      C1902   1.457       .  S
C1880      C1883   1.465       .  S
C1880      O1881   1.281       .  A
O1882      C1898   1.268       .  A
O1882     Zn1888   1.950       .  S
C1883      O1899   1.269       .  A
C1883      O1896   1.274       .  A
O1884      C1897   1.280       .  A
O1884     Cd1891   2.132       .  S
O1885      C1903   1.272       .  A
O1885     Cd1894   2.029       .  S
O1886      C1900   1.280       .  A
O1886     Cd1890   2.099       .  S
O1887      C1898   1.277       .  A
O1887     Cd1890   2.141       .  S
Zn1888     O1899   2.003       .  S
Zn1888     O1901   1.965       .  S
Zn1888     O1893   1.903       .  S
O1889      C1900   1.271       .  A
O1889     Cd1894   2.066       .  S
Cd1890     O1892   2.059       .  S
Cd1890     O1893   2.015       .  S
Cd1891     O1895   2.098       .  S
Cd1891     O1904   2.175       .  S
Cd1891     O1893   2.045       .  S
O1892      C1902   1.277       .  A
O1893     Cd1894   1.982       .  S
Cd1894     O1896   2.086       .  S
O1895      C1902   1.282       .  A
C1897      O1901   1.267       .  A
C1903      O1904   1.285       .  A
C1905      C1906   1.411       .  A
C1905      C1923   1.450       .  S
C1906      C1911   1.490       .  S
C1906      C1907   1.420       .  A
C1907      C1908   1.402       .  A
C1907      C1912   1.452       .  S
C1908      C1924   1.454       .  S
C1909      C1910   1.410       .  A
C1910      C1913   1.451       .  S
C1911      C1914   1.412       .  A
C1911      C1918   1.409       .  A
C1912      N1929   1.157       .  T
C1913      N1931   1.157       .  T
C1914      C1915   1.405       .  A
C1914      C1919   1.451       .  S
C1915      C1916   1.410       .  A
C1915      C1921   1.444       .  S
C1916      C1917   1.416       .  A
C1917      C1918   1.409       .  A
C1917      C1920   1.448       .  S
C1918      C1922   1.449       .  S
C1920      N1927   1.157       .  T
C1921      N1925   1.155       .  T
C1922      N1928   1.157       .  T
C1924      N1930   1.157       .  T
C1933      C1938   1.403       .  A
C1933      C1951   1.452       .  S
C1934      C1939   1.495       .  S
C1934      C1935   1.413       .  A
C1935      C1936   1.410       .  A
C1935      C1940   1.450       .  S
C1936      C1937   1.411       .  A
C1936      C1952   1.451       .  S
C1938      C1941   1.455       .  S
C1939      C1946   1.414       .  A
C1940      N1957   1.157       .  T
C1941      N1959   1.158       .  T
C1942      C1943   1.411       .  A
C1942      C1947   1.448       .  S
C1943      C1944   1.414       .  A
C1943      C1949   1.449       .  S
C1945      C1946   1.405       .  A
C1945      C1948   1.450       .  S
C1946      C1950   1.450       .  S
C1947      N1954   1.157       .  T
C1948      N1955   1.157       .  T
C1949      N1953   1.157       .  T
C1950      N1956   1.157       .  T
C1951      N1960   1.157       .  T
C1952      N1958   1.157       .  T
C1961      C1962   1.414       .  A
C1961      C1979   1.450       .  S
C1962      C1967   1.492       .  S
C1962      C1963   1.412       .  A
C1963      C1968   1.448       .  S
C1964      C1965   1.410       .  A
C1964      C1980   1.443       .  S
C1965      C1966   1.406       .  A
C1966      C1969   1.442       .  S
C1967      C1970   1.420       .  A
C1967      C1974   1.411       .  A
C1968      N1985   1.157       .  T
C1969      N1987   1.154       .  T
C1970      C1971   1.403       .  A
C1970      C1975   1.452       .  S
C1971      C1972   1.406       .  A
C1971      C1977   1.452       .  S
C1972      C1973   1.410       .  A
C1973      C1974   1.408       .  A
C1973      C1976   1.451       .  S
C1974      C1978   1.447       .  S
C1975      N1982   1.157       .  T
C1976      N1983   1.157       .  T
C1977      N1981   1.158       .  T
C1979      N1988   1.157       .  T
C1980      N1986   1.155       .  T
C1989      C1994   1.406       .  A
C1989      C2007   1.449       .  S
C1990      C1995   1.492       .  S
C1990      C1991   1.411       .  A
C1991      C1992   1.410       .  A
C1991      C1996   1.448       .  S
C1992      C1993   1.410       .  A
C1992      C2008   1.446       .  S
C1994      C1997   1.443       .  S
C1995      C2002   1.411       .  A
C1996      N2013   1.157       .  T
C1997      N2015   1.155       .  T
C1998      C1999   1.404       .  A
C1998      C2003   1.452       .  S
C1999      C2005   1.452   1_455  S
C2001      C2002   1.411       .  A
C2001      C2004   1.450       .  S
C2002      C2006   1.447       .  S
C2003      N2010   1.157       .  T
C2004      N2011   1.157       .  T
C2005      N2009   1.157       .  T
C2006      N2012   1.156       .  T
C2007      N2016   1.157       .  T
C2008      N2014   1.156       .  T
