geometry optimzed in LAMMPS
_audit_creation_date              2020-11-30 
_audit_creation_method            'lammps2cif' 
_symmetry_space_group_name_H-M    'P1' 
_symmetry_Int_Tables_number       1 
_symmetry_cell_setting            triclinic 
loop_ 
_symmetry_equiv_pos_as_xyz 
  x,y,z 
_cell_length_a                    44.37128089 
_cell_length_b                    44.459305852710386 
_cell_length_c                    26.327450524207034 
_cell_angle_alpha                 90.172844867172 
_cell_angle_beta                  89.89312930540247 
_cell_angle_gamma                 120.48524956917808 
loop_ 
_atom_site_label 
_atom_site_type_symbol 
_atom_site_fract_x 
_atom_site_fract_y 
_atom_site_fract_z 
_atom_site_charge 
N1          N  0.70436603  0.98396571  0.99676770    -0.02600
C2          C  0.68218092  0.97666905  0.95702653     0.00000
C3          C  0.65140831  0.97425859  0.97352529    -0.22900
C4          C  0.65469779  0.98024902  0.02489764    -0.23100
C5          C  0.68736405  0.98620633  0.03816482    -0.00100
H6          H  0.62944969  0.96997519  0.95033122     0.13700
H7          H  0.63554856  0.98072830  0.04988283     0.13700
O8          O  0.55164546  0.95832671  0.50914024    -0.56900
C9          C  0.61603400  0.05956449  0.50067561     0.75700
O10         O  0.65354720  0.97895211  0.55409367    -0.58100
C11         C  0.55005918  0.92909758  0.50760802     0.75700
C12         C  0.64503579  0.99545201  0.40063875     0.78000
Cd13       Cd  0.61679720  0.99463909  0.50067415     1.37500
O14         O  0.59404926  0.03341449  0.52616155    -0.56900
O15         O  0.61300260  0.98473433  0.40843832    -0.55800
C16         C  0.65490217  0.99715531  0.59197885     0.78000
O17         O  0.66458306  0.00618662  0.43950308    -0.58100
O18         O  0.63764222  0.05533230  0.47473666    -0.56600
O19         O  0.57905357  0.93037988  0.50294028    -0.56600
O20         O  0.64014460  0.01483704  0.58620590    -0.55700
N21         N  0.98951250  0.75561453  0.01144679    -0.02600
C22         C  0.99302624  0.73759401  0.05045752     0.00000
C23         C  0.99355582  0.70864612  0.03222958    -0.22900
C24         C  0.99039102  0.70870782  0.98054563    -0.23100
C25         C  0.98783549  0.73753436  0.96884149    -0.00100
H26         H  0.99520947  0.68906501  0.05438179     0.13700
H27         H  0.98994495  0.68975912  0.95417636     0.13700
O28         O  0.00856571  0.62591636  0.52186487    -0.56900
C29         C  0.90511879  0.58722018  0.51009663     0.75700
O30         O  0.96822061  0.69600849  0.56637916    -0.58100
C31         C  0.03539306  0.64943471  0.49931116     0.75700
C32         C  0.96734766  0.68430208  0.41580622     0.78000
Cd33       Cd  0.97158900  0.65260376  0.50929976     1.37500
O34         O  0.93322576  0.58892814  0.49586396    -0.56900
O35         O  0.95143943  0.65163443  0.42227303    -0.55800
C36         C  0.97750857  0.68693151  0.60612993     0.78000
O37         O  0.98499014  0.70275285  0.45327128    -0.58100
O38         O  0.90804235  0.61561637  0.52531624    -0.56600
O39         O  0.03259535  0.67418015  0.48104086    -0.56600
O40         O  0.98383527  0.66242079  0.60047608    -0.55700
C41         C  0.61022820  0.33246893  0.50544495     0.81100
N42         N  0.60784804  0.30075984  0.50867694    -0.77200
C43         C  0.63705615  0.29804566  0.51153740     0.83500
N44         N  0.66889220  0.32781989  0.51209862    -0.77200
C45         C  0.67186349  0.35970676  0.50852966     0.83600
N46         N  0.64243068  0.36178620  0.50432738    -0.78900
C47         C  0.30264888  0.62926158  0.49852524     0.81100
N48         N  0.33153344  0.66161459  0.50173683    -0.77200
C49         C  0.32864842  0.69061882  0.50336223     0.83500
N50         N  0.29636113  0.68695149  0.50037881    -0.77200
C51         C  0.26701127  0.65479447  0.49756742     0.83600
N52         N  0.27048508  0.62607333  0.49740619    -0.78900
N53         N  0.23087791  0.26193464  0.99042144    -0.02600
C54         C  0.24474513  0.28204290  0.03248271     0.00000
C55         C  0.27645189  0.31137790  0.02122538    -0.22900
C56         C  0.28240983  0.30943642  0.97054259    -0.23100
C57         C  0.25416759  0.27890699  0.95245541    -0.00100
H58         H  0.29350103  0.33187511  0.04726830     0.13700
H59         H  0.30458903  0.32865318  0.94889756     0.13700
O60         O  0.34903337  0.41109820  0.49875026    -0.56900
C61         C  0.38999169  0.34739358  0.48534572     0.75700
O62         O  0.28836070  0.29566486  0.54792304    -0.58100
C63         C  0.32046427  0.41031714  0.49062912     0.75700
C64         C  0.28959273  0.31946561  0.39352335     0.78000
Cd65       Cd  0.32372671  0.34666380  0.48994967     1.37500
O66         O  0.38805489  0.37282287  0.50327122    -0.56900
O67         O  0.32034375  0.34538976  0.39732109    -0.55800
C68         C  0.29103369  0.31456744  0.58569870     0.78000
O69         O  0.27432531  0.30540150  0.43487726    -0.58100
O70         O  0.36148463  0.32179862  0.46996126    -0.56600
O71         O  0.29439642  0.38054319  0.48120095    -0.56600
O72         O  0.30902058  0.34706343  0.57875853    -0.55700
C73         C  0.93965559  0.00267200  0.00562508     0.81100
N74         N  0.96960054  0.03358652  0.99791613    -0.77200
C75         C  0.00108524  0.03542815  0.99818731     0.83500
N76         N  0.00228339  0.00577301  0.00515610    -0.77200
C77         C  0.97255901  0.97435113  0.01159431     0.83600
N78         N  0.94120787  0.97308743  0.01232494    -0.78900
C79         C  0.21958956  0.26476764  0.81847936    -0.01100
C80         C  0.24809085  0.26726873  0.79084927     0.07500
C81         C  0.27594292  0.26817696  0.81724802    -0.07100
C82         C  0.27707826  0.26942919  0.87026510     0.04900
C83         C  0.24973324  0.26935206  0.89791508    -0.14300
C84         C  0.22047643  0.26555363  0.87175402    -0.07700
C85         C  0.25274667  0.27535073  0.73570577     0.05800
C86         C  0.25648856  0.30715304  0.72004284    -0.08800
C87         C  0.26738819  0.31959975  0.67081362     0.00800
C88         C  0.27491465  0.30002313  0.63583565     0.00700
C89         C  0.26904674  0.26709292  0.65058027    -0.12300
C90         C  0.25836119  0.25481968  0.70026000     0.01200
C91         C  0.27099618  0.35282106  0.65775782     0.40500
C92         C  0.25412789  0.22156110  0.71450743     0.37100
C93         C  0.19005164  0.26312383  0.79287670     0.36800
C94         C  0.30731729  0.27221245  0.89539053     0.37600
N95         N  0.27391290  0.37946726  0.64748092    -0.43200
N96         N  0.25075686  0.19493658  0.72611274    -0.43700
N97         N  0.33154250  0.27449988  0.91558095    -0.41000
N98         N  0.16645658  0.26192612  0.77225434    -0.42500
H99         H  0.19947153  0.26563561  0.89268194     0.13700
H100        H  0.29800507  0.27029925  0.79632759     0.10200
H101        H  0.25241719  0.32316072  0.74721641     0.11300
H102        H  0.27434788  0.25162624  0.62406455     0.17100
C103        C  0.22661326  0.30164734  0.16288914    -0.01100
C104        C  0.23104836  0.27750261  0.19163042     0.07500
C105        C  0.23080860  0.24939402  0.16689575    -0.07100
C106        C  0.23062230  0.24756658  0.11370546     0.04900
C107        C  0.23064849  0.27427703  0.08484235    -0.14300
C108        C  0.22644454  0.29985782  0.10981718    -0.07700
C109        C  0.24515251  0.28632501  0.24399397     0.05800
C110        C  0.22275449  0.27773894  0.28589657    -0.08800
C111        C  0.23638307  0.28762468  0.33527902     0.00800
C112        C  0.27309037  0.30665764  0.34293279     0.00700
C113        C  0.29520154  0.31489652  0.30059866    -0.12300
C114        C  0.28162053  0.30488503  0.25166182     0.01200
C115        C  0.21213016  0.27911671  0.37682929     0.40500
C116        C  0.30565909  0.31449191  0.20948302     0.37100
C117        C  0.22603373  0.33060268  0.18685125     0.36800
C118        C  0.23472456  0.22049898  0.09025053     0.37600
N119        N  0.19259745  0.27229119  0.41003619    -0.43200
N120        N  0.32472474  0.32207560  0.17550370    -0.43700
N121        N  0.23799549  0.19854834  0.07225251    -0.41000
N122        N  0.22556134  0.35382251  0.20600324    -0.42500
H123        H  0.22634053  0.32040403  0.08781761     0.13700
H124        H  0.23425241  0.23080568  0.18901386     0.10200
H125        H  0.19470280  0.26374968  0.27991946     0.11300
H126        H  0.32335099  0.32933503  0.30564064     0.17100
C127        C  0.13463428  0.19922203  0.00346004    -0.01100
C128        C  0.13170001  0.16781661  0.98589820     0.07500
C129        C  0.16160838  0.16825592  0.96737209    -0.07100
C130        C  0.19430313  0.19896811  0.96796593     0.04900
C131        C  0.19740658  0.23018311  0.98673944    -0.14300
C132        C  0.16732743  0.23000401  0.00376699    -0.07700
C133        C  0.09820604  0.13390154  0.98903906     0.05800
C134        C  0.06893645  0.12910978  0.96176867    -0.08800
C135        C  0.03700934  0.09745065  0.96413103     0.00800
C136        C  0.03411211  0.06961937  0.99391591     0.00700
C137        C  0.06360230  0.07451312  0.02083486    -0.12300
C138        C  0.09528572  0.10626159  0.01894473     0.01200
C139        C  0.00817555  0.09404799  0.93425763     0.40500
C140        C  0.12418229  0.11022044  0.04928197     0.37100
C141        C  0.10477508  0.20025119  0.02310233     0.36800
C142        C  0.22448535  0.19712240  0.95230608     0.37600
N143        N  0.98516465  0.09150064  0.91024945    -0.43200
N144        N  0.14740580  0.11351990  0.07352486    -0.43700
N145        N  0.24850665  0.19521576  0.93996540    -0.41000
N146        N  0.08079564  0.20105590  0.03871114    -0.42500
H147        H  0.16958115  0.25397531  0.01789908     0.13700
H148        H  0.15952034  0.14423485  0.95371693     0.10200
H149        H  0.07113502  0.15014579  0.93831518     0.11300
H150        H  0.06175924  0.05365642  0.04434476     0.17100
C151        C  0.28311752  0.53711504  0.52492783    -0.01100
C152        C  0.31105247  0.53637605  0.50031143     0.07500
C153        C  0.33617303  0.56636938  0.47465025    -0.07100
C154        C  0.33394814  0.59674712  0.47337054     0.04900
C155        C  0.30605395  0.59758637  0.49823180    -0.14300
C156        C  0.28078473  0.56742451  0.52355675    -0.07700
C157        C  0.31369319  0.50417763  0.49894233     0.05800
C158        C  0.28639885  0.47367449  0.47713775    -0.08800
C159        C  0.28774214  0.44287764  0.47453735     0.00800
C160        C  0.31756477  0.44234953  0.49269328     0.00700
C161        C  0.34492906  0.47303430  0.51449855    -0.12300
C162        C  0.34304097  0.50356424  0.51825808     0.01200
C163        C  0.25793352  0.41239690  0.45303202     0.40500
C164        C  0.37087334  0.53351670  0.54393262     0.37100
C165        C  0.25688219  0.50729399  0.55271430     0.36800
C166        C  0.35967726  0.62597436  0.44405169     0.37600
N167        N  0.23386666  0.38796163  0.43615622    -0.43200
N168        N  0.39303941  0.55747941  0.56479336    -0.43700
N169        N  0.38021924  0.64932449  0.42035267    -0.41000
N170        N  0.23584901  0.48332087  0.57485548    -0.42500
H171        H  0.25932933  0.56764475  0.54301217     0.13700
H172        H  0.35729467  0.56581145  0.45468946     0.10200
H173        H  0.26378197  0.47392841  0.46204713     0.11300
H174        H  0.36766283  0.47305812  0.52964247     0.17100
C175        C  0.55060110  0.36697848  0.46751414    -0.01100
C176        C  0.51855964  0.34270082  0.49015222     0.07500
C177        C  0.51651391  0.31484229  0.51781120    -0.07100
C178        C  0.54578886  0.31091392  0.52346025     0.04900
C179        C  0.57815101  0.33526228  0.50089436    -0.14300
C180        C  0.58000581  0.36324733  0.47324215    -0.07700
C181        C  0.48689691  0.34606008  0.48661764     0.05800
C182        C  0.46094858  0.32592311  0.45088211    -0.08800
C183        C  0.42954393  0.32639170  0.44898894     0.00800
C184        C  0.42361031  0.34736429  0.48357539     0.00700
C185        C  0.45018497  0.36822127  0.51839056    -0.12300
C186        C  0.48144705  0.36753126  0.52034023     0.01200
C187        C  0.40427506  0.30554407  0.41053484     0.40500
C188        C  0.50714968  0.38819787  0.55837565     0.37100
C189        C  0.55378298  0.39561070  0.43761581     0.36800
C190        C  0.54194118  0.28245579  0.55448517     0.37600
N191        N  0.38413642  0.28885395  0.37957748    -0.43200
N192        N  0.52773267  0.40466161  0.58895626    -0.43700
N193        N  0.53853639  0.25959967  0.57956532    -0.41000
N194        N  0.55643403  0.41851442  0.41340303    -0.42500
H195        H  0.60438913  0.38206786  0.45538155     0.13700
H196        H  0.49197416  0.29630932  0.53562902     0.10200
H197        H  0.46512772  0.30949999  0.42472075     0.11300
H198        H  0.44616358  0.38440280  0.54521919     0.17100
C199        C  0.10521630  0.62695032  0.53053964    -0.01100
C200        C  0.13185269  0.64734911  0.49542436     0.07500
C201        C  0.12611161  0.66735734  0.45984384    -0.07100
C202        C  0.09477345  0.66792919  0.45953762     0.04900
C203        C  0.06835992  0.64829740  0.49575378    -0.14300
C204        C  0.07389833  0.62755181  0.53045751    -0.07700
C205        C  0.16630981  0.64909072  0.49615094     0.05800
C206        C  0.16827582  0.61951913  0.48309864    -0.08800
C207        C  0.20040328  0.62040009  0.48316281     0.00800
C208        C  0.23169215  0.65161139  0.49656274     0.00700
C209        C  0.22929214  0.68110451  0.50963278    -0.12300
C210        C  0.19719477  0.68003630  0.50965340     0.01200
C211        C  0.20009538  0.58894409  0.46836064     0.40500
C212        C  0.19645698  0.71084281  0.52514045     0.37100
C213        C  0.10990929  0.60611540  0.56815359     0.36800
C214        C  0.09027082  0.68821787  0.42075136     0.37600
N215        N  0.19962357  0.56361148  0.45652915    -0.43200
N216        N  0.19581425  0.73547964  0.53767817    -0.43700
N217        N  0.08666923  0.70435797  0.38945824    -0.41000
N218        N  0.11368533  0.58939941  0.59826125    -0.42500
H219        H  0.05403600  0.61231113  0.55844064     0.13700
H220        H  0.14630230  0.68268748  0.43229857     0.10200
H221        H  0.14457417  0.59568348  0.47249720     0.11300
H222        H  0.25254592  0.70522008  0.52057869     0.17100
C223        C  0.83929840  0.49012782  0.49867924    -0.01100
C224        C  0.80691453  0.48871027  0.50436003     0.07500
C225        C  0.80705075  0.52004262  0.51228850    -0.07100
C226        C  0.83837370  0.55229616  0.51379885     0.04900
C227        C  0.87088115  0.55374533  0.50868010    -0.14300
C228        C  0.87070331  0.52231379  0.50102071    -0.07700
C229        C  0.77267480  0.45500774  0.50324187     0.05800
C230        C  0.76703757  0.42814096  0.53686468    -0.08800
C231        C  0.73482039  0.39674202  0.53860751     0.00800
C232        C  0.70692542  0.39198355  0.50710701     0.00700
C233        C  0.71253975  0.41883012  0.47349344    -0.12300
C234        C  0.74505158  0.44983622  0.47080007     0.01200
C235        C  0.73079112  0.37057833  0.57472023     0.40500
C236        C  0.74961677  0.47554290  0.43344448     0.37100
C237        C  0.84112477  0.45908352  0.48921659     0.36800
C238        C  0.83597297  0.58335646  0.51898836     0.37600
N239        N  0.72776766  0.34966733  0.60364193    -0.43200
N240        N  0.75325489  0.49611903  0.40347867    -0.43700
N241        N  0.83386121  0.60816512  0.52280337    -0.41000
N242        N  0.84273761  0.43426696  0.48180056    -0.42500
H243        H  0.89525049  0.52279116  0.49665661     0.13700
H244        H  0.78242208  0.51932673  0.51725101     0.10200
H245        H  0.78774768  0.43194151  0.56260214     0.11300
H246        H  0.69156812  0.41534591  0.44854030     0.17100
C247        C  0.99157119  0.70230023  0.74774348    -0.01100
C248        C  0.98443532  0.72933827  0.75650957     0.07500
C249        C  0.97595449  0.74360222  0.71540083    -0.07100
C250        C  0.97403603  0.73089231  0.66580516     0.04900
C251        C  0.98059888  0.70319855  0.65697170    -0.14300
C252        C  0.98977224  0.68967016  0.69854642    -0.07700
C253        C  0.98334322  0.74062917  0.80921129     0.05800
C254        C  0.01486243  0.76351915  0.83393811    -0.08800
C255        C  0.01607205  0.76668025  0.88703357     0.00800
C256        C  0.98543560  0.74665027  0.91577341     0.00700
C257        C  0.95344688  0.72642669  0.89065643    -0.12300
C258        C  0.95217339  0.72334246  0.83767954     0.01200
C259        C  0.04948448  0.78765081  0.91164942     0.40500
C260        C  0.91924356  0.69947846  0.81373272     0.37100
C261        C  0.99960089  0.68621350  0.78909726     0.36800
C262        C  0.96491165  0.74659512  0.62528380     0.37600
N263        N  0.07617634  0.80436301  0.93165258    -0.43200
N264        N  0.89292399  0.68030101  0.79440476    -0.43700
N265        N  0.95759204  0.75936444  0.59303599    -0.41000
N266        N  0.00588404  0.67324801  0.82225925    -0.42500
H267        H  0.99497389  0.66852331  0.69295581     0.13700
H268        H  0.97024930  0.76429809  0.72224331     0.10200
H269        H  0.03891041  0.77669913  0.81216414     0.11300
H270        H  0.92994254  0.71050710  0.91270455     0.17100
C271        C  0.99911579  0.74642236  0.30452652    -0.01100
C272        C  0.97441188  0.72669703  0.26654541     0.07500
C273        C  0.94484818  0.69474241  0.27987463    -0.07100
C274        C  0.94076807  0.68137479  0.32918500     0.04900
C275        C  0.96692841  0.69992551  0.36618038    -0.14300
C276        C  0.99514623  0.73305067  0.35376840    -0.07700
C277        C  0.98141865  0.73629379  0.21179347     0.05800
C278        C  0.01177209  0.73932398  0.19026365    -0.08800
C279        C  0.01753722  0.74320402  0.13794898     0.00800
C280        C  0.99255120  0.74396821  0.10566425     0.00700
C281        C  0.96318016  0.74313587  0.12722869    -0.12300
C282        C  0.95733850  0.73909737  0.17993863     0.01200
C283        C  0.04870498  0.74482290  0.11806846     0.40500
C284        C  0.92595016  0.73667085  0.20024434     0.37100
C285        C  0.02946454  0.77992871  0.29336144     0.36800
C286        C  0.90963134  0.64846869  0.34047076     0.37600
N287        N  0.07366355  0.74608539  0.10221084    -0.43200
N288        N  0.90071433  0.73456548  0.21655857    -0.43700
N289        N  0.88461200  0.62218630  0.34958251    -0.41000
N290        N  0.05387651  0.80667184  0.28421474    -0.42500
H291        H  0.01517968  0.74784798  0.38183798     0.13700
H292        H  0.92568515  0.67936680  0.25105833     0.10200
H293        H  0.03029386  0.73689705  0.21418962     0.11300
H294        H  0.94364435  0.74323388  0.10266910     0.17100
C295        C  0.95747968  0.81813331  0.98962783    -0.01100
C296        C  0.98342448  0.84872273  0.01406066     0.07500
C297        C  0.01151296  0.84810882  0.03765729    -0.07100
C298        C  0.01408507  0.81789548  0.03680715     0.04900
C299        C  0.98753653  0.78706512  0.01381337    -0.14300
C300        C  0.95947129  0.78765659  0.99035753    -0.07700
C301        C  0.98160443  0.88142787  0.01495571     0.05800
C302        C  0.95196439  0.88049409  0.03562935    -0.08800
C303        C  0.94818407  0.90999069  0.03515424     0.00800
C304        C  0.97485429  0.94186621  0.01427600     0.00700
C305        C  0.00495893  0.94282559  0.99469982    -0.12300
C306        C  0.00841762  0.91314575  0.99463472     0.01200
C307        C  0.91661624  0.90623098  0.05690195     0.40500
C308        C  0.03919871  0.91564021  0.97171284     0.37100
C309        C  0.92944497  0.81784410  0.96145839     0.36800
C310        C  0.04530466  0.81989145  0.05668268     0.37600
N311        N  0.89084926  0.90213146  0.07432462    -0.43200
N312        N  0.06388149  0.91764012  0.95340028    -0.47600
N313        N  0.07064530  0.82187948  0.07216762    -0.41000
N314        N  0.90715848  0.81779938  0.93863576    -0.42500
H315        H  0.93925291  0.76425893  0.97196750     0.13700
H316        H  0.03180617  0.87149185  0.05605997     0.10200
H317        H  0.93144671  0.85636547  0.05198150     0.11300
H318        H  0.02572985  0.96668833  0.97816011     0.17100
C319        C  0.48523855  0.83233137  0.49190974    -0.01100
C320        C  0.45381715  0.82875642  0.51103336     0.07500
C321        C  0.45422012  0.85856936  0.52996304    -0.07100
C322        C  0.48499123  0.89149619  0.52936354     0.04900
C323        C  0.51645453  0.89502977  0.51003047    -0.14300
C324        C  0.51600179  0.86501492  0.49193725    -0.07700
C325        C  0.42063489  0.79405866  0.51164172     0.05800
C326        C  0.42018407  0.76584783  0.53626544    -0.08800
C327        C  0.39079194  0.73214265  0.53411839     0.00800
C328        C  0.36038302  0.72608413  0.50782998     0.00700
C329        C  0.36032402  0.75467269  0.48508579    -0.12300
C330        C  0.39006056  0.78827683  0.48640095     0.01200
C331        C  0.39262257  0.70453047  0.56002203     0.40500
C332        C  0.38898569  0.81602801  0.45967418     0.37100
C333        C  0.48642160  0.80301184  0.47044301     0.36800
C334        C  0.48352666  0.92087004  0.54991802     0.37600
N335        N  0.39421127  0.68241882  0.58063199    -0.43200
N336        N  0.38812090  0.83828183  0.43828721    -0.43700
N337        N  0.48224244  0.94434907  0.56644203    -0.41000
N338        N  0.48728780  0.77944865  0.45336066    -0.42500
H339        H  0.53971710  0.86712050  0.47669669     0.13700
H340        H  0.43040677  0.85607629  0.54548957     0.10200
H341        H  0.44323435  0.77011610  0.55670769     0.11300
H342        H  0.33729710  0.75061206  0.46481095     0.17100
C343        C  0.59557918  0.19899499  0.51641499    -0.01100
C344        C  0.62471621  0.19444074  0.51253319     0.07500
C345        C  0.65815962  0.22403719  0.50868926    -0.07100
C346        C  0.66310578  0.25781147  0.50866553     0.04900
C347        C  0.63389420  0.26272781  0.51264806    -0.14300
C348        C  0.60033692  0.23272110  0.51666181    -0.07700
C349        C  0.62109424  0.15920001  0.50978462     0.05800
C350        C  0.63242045  0.14997505  0.46572276    -0.08800
C351        C  0.63056096  0.11762050  0.46157964     0.00800
C352        C  0.61700363  0.09352211  0.50217280     0.00700
C353        C  0.60534505  0.10266072  0.54611084    -0.12300
C354        C  0.60767289  0.13526573  0.55044500     0.01200
C355        C  0.64198009  0.10960945  0.41468665     0.40500
C356        C  0.59750197  0.14411728  0.59774548     0.37100
C357        C  0.56041182  0.16942354  0.51849065     0.36800
C358        C  0.69858076  0.28638231  0.50309413     0.37600
N359        N  0.65108319  0.10315390  0.37709250    -0.43200
N360        N  0.58933676  0.15122071  0.63564182    -0.43700
N361        N  0.72717650  0.30892946  0.49840499    -0.41000
N362        N  0.53226545  0.14567114  0.52036050    -0.42500
H363        H  0.57744286  0.23538938  0.51942481     0.13700
H364        H  0.68064285  0.22066356  0.50527093     0.10200
H365        H  0.64274596  0.16819890  0.43431310     0.11300
H366        H  0.59535137  0.08470736  0.57785024     0.17100
C367        C  0.70388207  0.02837263  0.16563790    -0.01100
C368        C  0.69872887  0.00065669  0.19736527     0.07500
C369        C  0.69830479  0.97152145  0.17567845    -0.07100
C370        C  0.69948384  0.96827748  0.12275227     0.04900
C371        C  0.70040347  0.99419211  0.09099253    -0.14300
C372        C  0.70448585  0.02484732  0.11286097    -0.07700
C373        C  0.68659233  0.99847542  0.25062498     0.05800
C374        C  0.65089845  0.97637734  0.26048420    -0.08800
C375        C  0.63683970  0.97499264  0.30863094     0.00800
C376        C  0.65889225  0.99565175  0.34886185     0.00700
C377        C  0.69491946  0.01735268  0.33902371    -0.12300
C378        C  0.70875902  0.01919737  0.29026664     0.01200
C379        C  0.59964143  0.95204312  0.31512860     0.40500
C380        C  0.74556526  0.04278477  0.28148528     0.37100
C381        C  0.70520151  0.05919425  0.18601651     0.36800
C382        C  0.69661113  0.93685177  0.10198240     0.37600
N383        N  0.56978674  0.93373802  0.31997672    -0.43200
N384        N  0.77502298  0.06182980  0.27420526    -0.43700
N385        N  0.69454574  0.91167443  0.08566376    -0.41000
N386        N  0.70641101  0.08398977  0.20229174    -0.42500
H387        H  0.70521066  0.04485066  0.08852898     0.13700
H388        H  0.69461404  0.95024308  0.19993875     0.10200
H389        H  0.63371298  0.96067754  0.22985299     0.11300
H390        H  0.71223058  0.03354208  0.36915703     0.17100
C391        C  0.72168788  0.01089349  0.82817220    -0.01100
C392        C  0.69529593  0.98593036  0.79608814     0.07500
C393        C  0.66848802  0.95492402  0.81722459    -0.07100
C394        C  0.66563018  0.95006320  0.86981158     0.04900
C395        C  0.69019335  0.97640784  0.90235304    -0.14300
C396        C  0.71900224  0.00592886  0.88101370    -0.07700
C397        C  0.69177204  0.99317268  0.74196252     0.05800
C398        C  0.69144810  0.97081742  0.70392927    -0.08800
C399        C  0.68139916  0.97260940  0.65397021     0.00800
C400        C  0.67125281  0.99720870  0.64143439     0.00700
C401        C  0.67350673  0.02073445  0.67917205    -0.12300
C402        C  0.68318848  0.01868833  0.72896344     0.01200
C403        C  0.67999690  0.94761213  0.61752248     0.40500
C404        C  0.68122607  0.04120318  0.76686957     0.37100
C405        C  0.75060650  0.04254840  0.80785042     0.36800
C406        C  0.63617850  0.91855137  0.88961007     0.37600
N407        N  0.67889121  0.92745054  0.58853630    -0.43200
N408        N  0.67957412  0.05919670  0.79722155    -0.43700
N409        N  0.61253346  0.89334994  0.90548427    -0.41000
N410        N  0.77368381  0.06798850  0.79150274    -0.42500
H411        H  0.73798038  0.02635635  0.90567036     0.13700
H412        H  0.64831224  0.93544398  0.79274177     0.10200
H413        H  0.69762975  0.95087544  0.71389318     0.11300
H414        H  0.66598911  0.03988850  0.67049714     0.17100
C415        C  0.86617027  0.01660326  0.96287547    -0.01100
C416        C  0.84089320  0.99921744  0.00102403     0.07500
C417        C  0.84860516  0.98398082  0.04174152    -0.07100
C418        C  0.88090904  0.98549668  0.04452835     0.04900
C419        C  0.90561355  0.00137621  0.00509237    -0.14300
C420        C  0.89814797  0.01738511  0.96498056    -0.07700
C421        C  0.80607247  0.99627323  0.99889106     0.05800
C422        C  0.77736614  0.96496679  0.98164135    -0.08800
C423        C  0.74391298  0.96081648  0.97969388     0.00800
C424        C  0.73876142  0.98816314  0.99579492     0.00700
C425        C  0.76751043  0.01952770  0.01292995    -0.12300
C426        C  0.80107977  0.02385415  0.01424040     0.01200
C427        C  0.71504749  0.92778637  0.96301553     0.40500
C428        C  0.82995357  0.05662497  0.03180999     0.37100
C429        C  0.85971145  0.03373625  0.92136070     0.36800
C430        C  0.88921768  0.97328378  0.09013658     0.37600
N431        N  0.69198813  0.90120672  0.94966513    -0.43200
N432        N  0.85313579  0.08294447  0.04571891    -0.43700
N433        N  0.89605739  0.96421129  0.12728686    -0.41000
N434        N  0.85442486  0.04761800  0.88841179    -0.42500
H435        H  0.91723810  0.03029917  0.93502319     0.13700
H436        H  0.82956344  0.97147043  0.07190107     0.10200
H437        H  0.78112364  0.94371641  0.96992918     0.11300
H438        H  0.76360897  0.04056957  0.02517148     0.17100
loop_ 
_geom_bond_atom_site_label_1 
_geom_bond_atom_site_label_2 
_geom_bond_distance 
_geom_bond_site_symmetry_2 
_ccdc_geom_bond_type 
N1            C5   1.356   1_556  A
N1            C2   1.359       .  A
N1          C424   1.441       .  S
C2            C3   1.384       .  A
C2          C395   1.483       .  S
C3            C4   1.371   1_556  A
C3            H6   1.082       .  S
C4            C5   1.380       .  A
C4            H7   1.082       .  S
C5          C371   1.479       .  S
O8           C11   1.266       .  A
O8          Cd13   2.506       .  S
C9          C352   1.489       .  S
C9           O18   1.265       .  A
C9           O14   1.267       .  A
O10          C16   1.265       .  A
O10         Cd13   2.508       .  S
C11         C323   1.493       .  S
C11          O19   1.264       .  A
C12         C376   1.493       .  S
C12          O17   1.268   1_565  A
C12          O15   1.266       .  A
Cd13         O20   2.450   1_565  S
Cd13         O19   2.473       .  S
Cd13         O18   2.466   1_565  S
Cd13         O14   2.489   1_565  S
Cd13         O17   2.498   1_565  S
Cd13         O15   2.457       .  S
C16         C400   1.491       .  S
C16          O20   1.262   1_565  A
N21          C25   1.358   1_554  A
N21          C22   1.361       .  A
N21         C299   1.446       .  S
C22          C23   1.384       .  A
C22         C280   1.482       .  S
C23          C24   1.368   1_554  A
C23          H26   1.082       .  S
C24          C25   1.379       .  A
C24          H27   1.082       .  S
C25         C256   1.475       .  S
O28          C31   1.265       .  A
O28         Cd33   2.488   1_455  S
C29         C227   1.493       .  S
C29          O38   1.266       .  A
C29          O34   1.266       .  A
O30          C36   1.265       .  A
O30         Cd33   2.506       .  S
C31         C203   1.492       .  S
C31          O39   1.265       .  A
C32         C275   1.486       .  S
C32          O37   1.267       .  A
C32          O35   1.264       .  A
Cd33         O40   2.451       .  S
Cd33         O39   2.483   1_655  S
Cd33         O38   2.475       .  S
Cd33         O34   2.479       .  S
Cd33         O37   2.484       .  S
Cd33         O35   2.453       .  S
C36         C251   1.493       .  S
C36          O40   1.264       .  A
C41          N42   1.362       .  A
C41          N46   1.361       .  A
C41         C179   1.495       .  S
N42          C43   1.363       .  A
C43          N44   1.360       .  A
C43         C347   1.504       .  S
N44          C45   1.359       .  A
C45          N46   1.360       .  A
C45         C232   1.489       .  S
C47          N48   1.359       .  A
C47          N52   1.361       .  A
C47         C155   1.491       .  S
N48          C49   1.359       .  A
C49          N50   1.360       .  A
C49         C328   1.493       .  S
N50          C51   1.362       .  A
C51          N52   1.362       .  A
C51         C208   1.501       .  S
N53          C57   1.359       .  A
N53          C54   1.357   1_556  A
N53         C131   1.442       .  S
C54          C55   1.381       .  A
C54         C107   1.480       .  S
C55          C56   1.371   1_554  A
C55          H58   1.082       .  S
C56          C57   1.383       .  A
C56          H59   1.082       .  S
C57          C83   1.481       .  S
O60          C63   1.269       .  A
O60         Cd65   2.501       .  S
C61         C184   1.493       .  S
C61          O70   1.264       .  A
C61          O66   1.266       .  A
O62          C68   1.266       .  A
O62         Cd65   2.517       .  S
C63         C160   1.494       .  S
C63          O71   1.264       .  A
C64         C112   1.487       .  S
C64          O69   1.268       .  A
C64          O67   1.267       .  A
Cd65         O72   2.429       .  S
Cd65         O71   2.451       .  S
Cd65         O70   2.486       .  S
Cd65         O66   2.501       .  S
Cd65         O69   2.488       .  S
Cd65         O67   2.442       .  S
C68          C88   1.485       .  S
C68          O72   1.260       .  A
C73          N74   1.358   1_554  A
C73          N78   1.364   1_545  A
C73         C419   1.482       .  S
N74          C75   1.357   1_655  A
C75          N76   1.359   1_556  A
C75         C136   1.487       .  S
N76          C77   1.361   1_445  A
C77          N78   1.364       .  A
C77         C304   1.500       .  S
C79          C80   1.413       .  A
C79          C84   1.403       .  A
C79          C93   1.443       .  S
C80          C81   1.402       .  A
C80          C85   1.485       .  S
C81          C82   1.397       .  A
C81         H100   1.084       .  S
C82          C83   1.412       .  A
C82          C94   1.445       .  S
C83          C84   1.403       .  A
C84          H99   1.083       .  S
C85          C86   1.401       .  A
C85          C90   1.411       .  A
C86          C87   1.397       .  A
C86         H101   1.085       .  S
C87          C88   1.416       .  A
C87          C91   1.445       .  S
C88          C89   1.406       .  A
C89          C90   1.405       .  A
C89         H102   1.084       .  S
C90          C92   1.443       .  S
C91          N95   1.157       .  T
C92          N96   1.157       .  T
C93          N98   1.157       .  T
C94          N97   1.157       .  T
C103        C104   1.408       .  A
C103        C108   1.399       .  A
C103        C117   1.444       .  S
C104        C105   1.403       .  A
C104        C109   1.482       .  S
C105        C106   1.402       .  A
C105        H124   1.085       .  S
C106        C107   1.411       .  A
C106        C118   1.442       .  S
C107        C108   1.404       .  A
C108        H123   1.085       .  S
C109        C110   1.401       .  A
C109        C114   1.409       .  A
C110        C111   1.407       .  A
C110        H125   1.084       .  S
C111        C112   1.418       .  A
C111        C115   1.443       .  S
C112        C113   1.405       .  A
C113        C114   1.396       .  A
C113        H126   1.085       .  S
C114        C116   1.445       .  S
C115        N119   1.157       .  T
C116        N120   1.157       .  T
C117        N122   1.157       .  T
C118        N121   1.157       .  T
C127        C128   1.411   1_554  A
C127        C132   1.401       .  A
C127        C141   1.443       .  S
C128        C129   1.404       .  A
C128        C133   1.489       .  S
C129        C130   1.400       .  A
C129        H148   1.084       .  S
C130        C131   1.411       .  A
C130        C142   1.442       .  S
C131        C132   1.403   1_556  A
C132        H147   1.083       .  S
C133        C134   1.403       .  A
C133        C138   1.411   1_556  A
C134        C135   1.403       .  A
C134        H149   1.085       .  S
C135        C136   1.417       .  A
C135        C139   1.444       .  S
C136        C137   1.406   1_556  A
C137        C138   1.399       .  A
C137        H150   1.084       .  S
C138        C140   1.445       .  S
C139        N143   1.157   1_455  T
C140        N144   1.157       .  T
C141        N146   1.157       .  T
C142        N145   1.157       .  T
C151        C152   1.413       .  A
C151        C156   1.403       .  A
C151        C165   1.444       .  S
C152        C153   1.404       .  A
C152        C157   1.495       .  S
C153        C154   1.404       .  A
C153        H172   1.085       .  S
C154        C155   1.416       .  A
C154        C166   1.444       .  S
C155        C156   1.406       .  A
C156        H171   1.085       .  S
C157        C158   1.402       .  A
C157        C162   1.412       .  A
C158        C159   1.402       .  A
C158        H173   1.085       .  S
C159        C160   1.419       .  A
C159        C163   1.444       .  S
C160        C161   1.408       .  A
C161        C162   1.405       .  A
C161        H174   1.085       .  S
C162        C164   1.444       .  S
C163        N167   1.157       .  T
C164        N168   1.157       .  T
C165        N170   1.157       .  T
C166        N169   1.157       .  T
C175        C176   1.409       .  A
C175        C180   1.405       .  A
C175        C189   1.443       .  S
C176        C177   1.401       .  A
C176        C181   1.489       .  S
C177        C178   1.404       .  A
C177        H196   1.084       .  S
C178        C179   1.418       .  A
C178        C190   1.443       .  S
C179        C180   1.409       .  A
C180        H195   1.083       .  S
C181        C182   1.402       .  A
C181        C186   1.409       .  A
C182        C183   1.405       .  A
C182        H197   1.084       .  S
C183        C184   1.418       .  A
C183        C187   1.444       .  S
C184        C185   1.407       .  A
C185        C186   1.404       .  A
C185        H198   1.084       .  S
C186        C188   1.443       .  S
C187        N191   1.157       .  T
C188        N192   1.157       .  T
C189        N194   1.157       .  T
C190        N193   1.157       .  T
C199        C200   1.410       .  A
C199        C204   1.403       .  A
C199        C213   1.444       .  S
C200        C201   1.403       .  A
C200        C205   1.491       .  S
C201        C202   1.404       .  A
C201        H220   1.084       .  S
C202        C203   1.417       .  A
C202        C214   1.444       .  S
C203        C204   1.408       .  A
C204        H219   1.083       .  S
C205        C206   1.403       .  A
C205        C210   1.408       .  A
C206        C207   1.406       .  A
C206        H221   1.084       .  S
C207        C208   1.422       .  A
C207        C211   1.444       .  S
C208        C209   1.410       .  A
C209        C210   1.401       .  A
C209        H222   1.084       .  S
C210        C212   1.444       .  S
C211        N215   1.158       .  T
C212        N216   1.157       .  T
C213        N218   1.157       .  T
C214        N217   1.157       .  T
C223        C224   1.414       .  A
C223        C228   1.404       .  A
C223        C237   1.444       .  S
C224        C225   1.405       .  A
C224        C229   1.498       .  S
C225        C226   1.403       .  A
C225        H244   1.085       .  S
C226        C227   1.417       .  A
C226        C238   1.444       .  S
C227        C228   1.407       .  A
C228        H243   1.084       .  S
C229        C230   1.405       .  A
C229        C234   1.415       .  A
C230        C231   1.403       .  A
C230        H245   1.085       .  S
C231        C232   1.415       .  A
C231        C235   1.444       .  S
C232        C233   1.405       .  A
C233        C234   1.403       .  A
C233        H246   1.085       .  S
C234        C236   1.444       .  S
C235        N239   1.157       .  T
C236        N240   1.157       .  T
C237        N242   1.157       .  T
C238        N241   1.157       .  T
C247        C248   1.408       .  A
C247        C252   1.396       .  A
C247        C261   1.445       .  S
C248        C249   1.401       .  A
C248        C253   1.483       .  S
C249        C250   1.407       .  A
C249        H268   1.086       .  S
C250        C251   1.420       .  A
C250        C262   1.443       .  S
C251        C252   1.407       .  A
C252        H267   1.085       .  S
C253        C254   1.404   1_655  A
C253        C258   1.409       .  A
C254        C255   1.403       .  A
C254        H269   1.084       .  S
C255        C256   1.409   1_455  A
C255        C259   1.444       .  S
C256        C257   1.402       .  A
C257        C258   1.399       .  A
C257        H270   1.085       .  S
C258        C260   1.444       .  S
C259        N263   1.157       .  T
C260        N264   1.157       .  T
C261        N266   1.157   1_655  T
C262        N265   1.157       .  T
C271        C272   1.412       .  A
C271        C276   1.401       .  A
C271        C285   1.444   1_655  S
C272        C273   1.405       .  A
C272        C277   1.491       .  S
C273        C274   1.402       .  A
C273        H292   1.084       .  S
C274        C275   1.416       .  A
C274        C286   1.445       .  S
C275        C276   1.405       .  A
C276        H291   1.084   1_655  S
C277        C278   1.402   1_655  A
C277        C282   1.414       .  A
C278        C279   1.396       .  A
C278        H293   1.085       .  S
C279        C280   1.412   1_455  A
C279        C283   1.445       .  S
C280        C281   1.404       .  A
C281        C282   1.406       .  A
C281        H294   1.084       .  S
C282        C284   1.443       .  S
C283        N287   1.157       .  T
C284        N288   1.157       .  T
C285        N290   1.157       .  T
C286        N289   1.158       .  T
C295        C296   1.413   1_556  A
C295        C300   1.402       .  A
C295        C309   1.444       .  S
C296        C297   1.406   1_655  A
C296        C301   1.497       .  S
C297        C298   1.405       .  A
C297        H316   1.084       .  S
C298        C299   1.411   1_455  A
C298        C310   1.442       .  S
C299        C300   1.403   1_554  A
C300        H315   1.083       .  S
C301        C302   1.403       .  A
C301        C306   1.411   1_654  A
C302        C303   1.404       .  A
C302        H317   1.084       .  S
C303        C304   1.418       .  A
C303        C307   1.441       .  S
C304        C305   1.411   1_654  A
C305        C306   1.404       .  A
C305        H318   1.083       .  S
C306        C308   1.444       .  S
C307        N311   1.157       .  T
C308        N312   1.157       .  T
C309        N314   1.157       .  T
C310        N313   1.157       .  T
C319        C320   1.413       .  A
C319        C324   1.401       .  A
C319        C333   1.444       .  S
C320        C321   1.406       .  A
C320        C325   1.498       .  S
C321        C322   1.407       .  A
C321        H340   1.084       .  S
C322        C323   1.417       .  A
C322        C334   1.444       .  S
C323        C324   1.406       .  A
C324        H339   1.084       .  S
C325        C326   1.405       .  A
C325        C330   1.413       .  A
C326        C327   1.402       .  A
C326        H341   1.085       .  S
C327        C328   1.416       .  A
C327        C331   1.444       .  S
C328        C329   1.408       .  A
C329        C330   1.405       .  A
C329        H342   1.084       .  S
C330        C332   1.444       .  S
C331        N335   1.157       .  T
C332        N336   1.157       .  T
C333        N338   1.157       .  T
C334        N337   1.157       .  T
C343        C344   1.410       .  A
C343        C348   1.404       .  A
C343        C357   1.444       .  S
C344        C345   1.401       .  A
C344        C349   1.493       .  S
C345        C346   1.403       .  A
C345        H364   1.085       .  S
C346        C347   1.423       .  A
C346        C358   1.444       .  S
C347        C348   1.412       .  A
C348        H363   1.083       .  S
C349        C350   1.404       .  A
C349        C354   1.412       .  A
C350        C351   1.402       .  A
C350        H365   1.085       .  S
C351        C352   1.415       .  A
C351        C355   1.444       .  S
C352        C353   1.407       .  A
C353        C354   1.404       .  A
C353        H366   1.084       .  S
C354        C356   1.444       .  S
C355        N359   1.157       .  T
C356        N360   1.157       .  T
C357        N362   1.157       .  T
C358        N361   1.157       .  T
C367        C368   1.410       .  A
C367        C372   1.400       .  A
C367        C381   1.443       .  S
C368        C369   1.405   1_545  A
C368        C373   1.487   1_545  S
C369        C370   1.404       .  A
C369        H388   1.084       .  S
C370        C371   1.409       .  A
C370        C382   1.443       .  S
C371        C372   1.402   1_565  A
C372        H387   1.085       .  S
C373        C374   1.401       .  A
C373        C378   1.409   1_565  A
C374        C375   1.399       .  A
C374        H389   1.085       .  S
C375        C376   1.417       .  A
C375        C379   1.444       .  S
C376        C377   1.410   1_565  A
C377        C378   1.406       .  A
C377        H390   1.084       .  S
C378        C380   1.443       .  S
C379        N383   1.157       .  T
C380        N384   1.157       .  T
C381        N386   1.157       .  T
C382        N385   1.157       .  T
C391        C392   1.413   1_545  A
C391        C396   1.405       .  A
C391        C405   1.443       .  S
C392        C393   1.401       .  A
C392        C397   1.488       .  S
C393        C394   1.397       .  A
C393        H412   1.086       .  S
C394        C395   1.413       .  A
C394        C406   1.444       .  S
C395        C396   1.404   1_565  A
C396        H411   1.085       .  S
C397        C398   1.404       .  A
C397        C402   1.411   1_565  A
C398        C399   1.405       .  A
C398        H413   1.086       .  S
C399        C400   1.418       .  A
C399        C403   1.443       .  S
C400        C401   1.407   1_565  A
C401        C402   1.398       .  A
C401        H414   1.085       .  S
C402        C404   1.445       .  S
C403        N407   1.157       .  T
C404        N408   1.157       .  T
C405        N410   1.157       .  T
C406        N409   1.157       .  T
C415        C416   1.409   1_546  A
C415        C420   1.403       .  A
C415        C429   1.444       .  S
C416        C417   1.402       .  A
C416        C421   1.484   1_554  S
C417        C418   1.402       .  A
C417        H436   1.085       .  S
C418        C419   1.412   1_565  A
C418        C430   1.443       .  S
C419        C420   1.406   1_554  A
C420        H435   1.084       .  S
C421        C422   1.402       .  A
C421        C426   1.410   1_566  A
C422        C423   1.401       .  A
C422        H437   1.083       .  S
C423        C424   1.410       .  A
C423        C427   1.442       .  S
C424        C425   1.403   1_566  A
C425        C426   1.402       .  A
C425        H438   1.082       .  S
C426        C428   1.443       .  S
C427        N431   1.157       .  T
C428        N432   1.157       .  T
C429        N434   1.157       .  T
C430        N433   1.157       .  T
