geometry optimzed in LAMMPS
_audit_creation_date              2020-11-30 
_audit_creation_method            'lammps2cif' 
_symmetry_space_group_name_H-M    'P1' 
_symmetry_Int_Tables_number       1 
_symmetry_cell_setting            triclinic 
loop_ 
_symmetry_equiv_pos_as_xyz 
  x,y,z 
_cell_length_a                    46.88857913 
_cell_length_b                    46.16278257051701 
_cell_length_c                    31.214530922052887 
_cell_angle_alpha                 89.99842850669856 
_cell_angle_beta                  89.9985272478125 
_cell_angle_gamma                 89.99972882956332 
loop_ 
_atom_site_label 
_atom_site_type_symbol 
_atom_site_fract_x 
_atom_site_fract_y 
_atom_site_fract_z 
_atom_site_charge 
C1          C  0.14707525  0.28177909  0.33629598     0.02700
C2          C  0.15664187  0.30808899  0.35375125    -0.13500
C3          C  0.14159697  0.32111443  0.38722713     0.00200
C4          C  0.11670350  0.30819956  0.40256854    -0.12000
C5          C  0.10634852  0.28249602  0.38459467     0.02700
C6          C  0.12191176  0.26881752  0.35184007    -0.11400
H7          H  0.17584583  0.31825050  0.34155957     0.08300
H8          H  0.10468915  0.31887558  0.42775373     0.05800
H9          H  0.11378498  0.24925186  0.33704753     0.05600
C10         C  0.31275225  0.21736773  0.04274516     0.02700
C11         C  0.33763066  0.23065865  0.02686100    -0.13500
C12         C  0.35293510  0.21740651  0.49339711     0.00200
C13         C  0.34246796  0.19184023  0.47490356    -0.12000
C14         C  0.31767357  0.17871480  0.49032495     0.02700
C15         C  0.30300222  0.19134346  0.52453527    -0.11400
H16         H  0.34586379  0.25003055  0.04206161     0.08300
H17         H  0.35444379  0.18132320  0.44954268     0.05800
H18         H  0.28399342  0.18093610  0.03698276     0.05600
Zr19       Zr  0.17751502  0.27344599  0.19073857     2.17500
O20         O  0.13724988  0.30534773  0.20621158    -0.51800
O21         O  0.13635816  0.24830930  0.15924620    -0.75000
O22         O  0.17418076  0.31350631  0.14006826    -0.81800
O23         O  0.18058503  0.24854771  0.30927279    -0.83500
O24         O  0.20369148  0.30328744  0.08427220    -0.79100
O25         O  0.15990096  0.28071147  0.26355082    -0.90800
O26         O  0.14993229  0.20230863  0.14363466    -0.76700
O27         O  0.19404440  0.24735619  0.12986839    -0.86200
O28         O  0.18305424  0.22440157  0.21356819    -0.85900
O29         O  0.22230553  0.29615031  0.17202536    -0.72700
O30         O  0.21204665  0.27419280  0.24758118    -0.84800
Zr31       Zr  0.27955565  0.22002757  0.18791263     2.26400
Zr32       Zr  0.23868811  0.26913787  0.11109529     2.06300
Zr33       Zr  0.21829532  0.22500383  0.26903696     2.10000
Zr34       Zr  0.20045988  0.19865373  0.15292883     1.78800
O35         O  0.23347006  0.23612142  0.34181576    -0.93600
O36         O  0.19160018  0.19028302  0.07698411    -0.41400
O37         O  0.23522717  0.19787152  0.20881287    -0.78100
O38         O  0.24449807  0.21946151  0.13139588    -0.96700
O39         O  0.27411429  0.26929612  0.16648312    -0.90000
O40         O  0.26329856  0.24571734  0.24961529    -0.92900
C41         C  0.13130101  0.22240942  0.14622302     1.00900
C42         C  0.16310256  0.26908841  0.30063759     1.13800
C43         C  0.18470581  0.31876335  0.10294148     1.04600
O44         O  0.22557478  0.25673226  0.03795836    -0.95000
O45         O  0.27875566  0.24937390  0.07141945    -0.90800
O46         O  0.30001075  0.21662377  0.11573799    -0.83900
C47         C  0.29689554  0.22926607  0.07926700     1.11200
O48         O  0.23961315  0.34039394  0.25618760    -0.97000
Zr49       Zr  0.25697779  0.29453123  0.22782738     1.88900
O50         O  0.32107616  0.24411930  0.22009644    -0.73700
O51         O  0.26588111  0.31163244  0.08936624    -0.52900
O52         O  0.27537750  0.33613548  0.18850227    -0.97600
O53         O  0.26381159  0.30182648  0.30456501    -0.54800
O54         O  0.30774989  0.29030787  0.23499085    -0.74200
C55         C  0.32634559  0.27015822  0.23234218     0.98200
O56         O  0.31811406  0.18606204  0.17241585    -0.63000
O57         O  0.18815557  0.18464193  0.29088913    -0.57800
O58         O  0.27967152  0.17804802  0.23585354    -0.94500
O59         O  0.25220626  0.18925172  0.29352044    -0.92900
O60         O  0.18205086  0.15591278  0.18928479    -0.93300
O61         O  0.22247839  0.15436286  0.12673033    -0.92100
C62         C  0.27030884  0.17328576  0.27388941     1.17000
H63         H  0.16529772  0.21648084  0.22403746     0.32900
H64         H  0.25014238  0.20773719  0.10727789     0.43800
H65         H  0.27663864  0.24403472  0.27305074     0.37300
H66         H  0.22079218  0.31653889  0.16552963     0.33800
H67         H  0.17704104  0.17475264  0.07616314     0.25600
H68         H  0.26230028  0.31337696  0.05819431     0.31500
H69         H  0.29341476  0.34133991  0.20308515     0.37400
H70         H  0.16907047  0.14683552  0.16816854     0.31900
H71         H  0.19807615  0.16715938  0.28012324     0.30800
H72         H  0.22318602  0.22205156  0.36010361     0.32500
H73         H  0.28037614  0.28966340  0.31246974     0.31400
H74         H  0.23990162  0.15209398  0.14434431     0.35400
H75         H  0.32906940  0.18412977  0.19945312     0.28200
H76         H  0.12595630  0.30633699  0.17942906     0.32400
H77         H  0.25684991  0.35086463  0.26603281     0.35200
H78         H  0.19032377  0.18366478  0.32240066     0.27900
H79         H  0.30889350  0.16701412  0.16815320     0.40700
H80         H  0.22533439  0.23529150  0.03745709     0.30800
H81         H  0.18137607  0.20779790  0.06701543     0.38400
H82         H  0.24725480  0.29217860  0.31812956     0.30200
H83         H  0.25563702  0.32827658  0.10212292     0.30300
H84         H  0.14548044  0.32496382  0.20967623     0.30600
C85         C  0.15114775  0.34833840  0.40693691     0.02700
C86         C  0.15982731  0.34788387  0.44978835    -0.13500
C87         C  0.16347227  0.37372858  0.97274568     0.00200
C88         C  0.15852865  0.40024764  0.45194493    -0.12000
C89         C  0.15014301  0.40095511  0.40883788     0.02700
C90         C  0.14673753  0.37491395  0.38618172    -0.11400
H91         H  0.16240830  0.32714885  0.46561966     0.08300
H92         H  0.16017547  0.42043096  0.46949981     0.05800
H93         H  0.13866530  0.37527428  0.35364356     0.05600
C94         C  0.17716812  0.34602341  0.08236750     0.79800
N95         N  0.17251247  0.34695833  0.03955095    -0.78500
C96         C  0.17015198  0.37279928  0.01902045     0.82200
N97         N  0.17414011  0.39769797  0.04140426    -0.78500
C98         C  0.17902940  0.39690851  0.08422363     0.82300
N99         N  0.18037294  0.37104017  0.10468355    -0.80200
C100        C  0.14584487  0.46738269  0.33766094     0.02700
C101        C  0.12096299  0.98067255  0.35352906    -0.13500
C102        C  0.10558174  0.46735783  0.38685347     0.00200
C103        C  0.11597967  0.44172651  0.40524380    -0.12000
C104        C  0.14079002  0.42860262  0.38986922     0.02700
C105        C  0.15553594  0.44129545  0.35577303    -0.11400
H106        H  0.11277921  0.00009169  0.33839872     0.08300
H107        H  0.10394878  0.43117347  0.43051322     0.05800
H108        H  0.17455329  0.43089491  0.34334273     0.05600
C109        C  0.31135454  0.03180506  0.04391166     0.02700
C110        C  0.30180153  0.05815282  0.52653369    -0.13500
C111        C  0.31688765  0.07125796  0.49314916     0.00200
C112        C  0.34182212  0.05840654  0.47785762    -0.12000
C113        C  0.35214292  0.03264381  0.49568609     0.02700
C114        C  0.33654170  0.51888670  0.02834464    -0.11400
H115        H  0.28257440  0.06827823  0.03870631     0.08300
H116        H  0.35386269  0.06914657  0.45275885     0.05800
H117        H  0.34465516  0.49928405  0.04304625     0.05600
Zr118      Zr  0.28103525  0.02336417  0.18961122     2.17500
O119        O  0.32147793  0.05501951  0.17412917    -0.51800
O120        O  0.32211781  0.99824647  0.22138622    -0.75000
O121        O  0.28433905  0.06355520  0.24014201    -0.81800
O122        O  0.27784463  0.49850209  0.07091436    -0.83500
O123        O  0.25481833  0.05335425  0.29593681    -0.79100
O124        O  0.29853815  0.03062969  0.11668884    -0.90800
O125        O  0.30858349  0.45220894  0.23681929    -0.76700
O126        O  0.26450226  0.99729448  0.25050551    -0.86200
O127        O  0.27546266  0.47430665  0.16680207    -0.85900
O128        O  0.23625273  0.04609839  0.20825862    -0.72700
O129        O  0.24651023  0.02406868  0.13275923    -0.84800
Zr130      Zr  0.17896714  0.47000262  0.19244351     2.26400
Zr131      Zr  0.21986971  0.01912357  0.26921457     2.06300
Zr132      Zr  0.24022475  0.47488253  0.11131020     2.10000
Zr133      Zr  0.25806106  0.44857974  0.22747623     1.78800
O134        O  0.22465662  0.48587824  0.03867785    -0.93600
O135        O  0.26684534  0.44011679  0.30343206    -0.41400
O136        O  0.22328423  0.44778961  0.17157668    -0.78100
O137        O  0.21403536  0.46943706  0.24894841    -0.96700
O138        O  0.18443706  0.01928100  0.21381675    -0.90000
O139        O  0.19523932  0.49564787  0.13072172    -0.92900
C140        C  0.32719355  0.47233147  0.23433339     1.00900
C141        C  0.29532278  0.01905237  0.07956354     1.13800
C142        C  0.27379743  0.06883616  0.27726498     1.04600
O143        O  0.23304627  0.00667093  0.34231928    -0.95000
O144        O  0.17984029  0.99941611  0.30901095    -0.90800
O145        O  0.15856480  0.46669308  0.26467085    -0.83900
C146        C  0.16170187  0.47930946  0.30115832     1.11200
O147        O  0.21902813  0.09035571  0.12421676    -0.97000
Zr148      Zr  0.20159976  0.04447065  0.15243625     1.88900
O149        O  0.13743685  0.49416341  0.16045785    -0.73700
O150        O  0.19275254  0.06169563  0.29083931    -0.52900
O151        O  0.18308008  0.08609990  0.19156910    -0.97600
O152        O  0.19500295  0.05170924  0.07564869    -0.54800
O153        O  0.15085266  0.04024009  0.14497781    -0.74200
C154        C  0.13222170  0.02014257  0.14790284     0.98200
O155        O  0.14037983  0.43607048  0.20795505    -0.63000
O156        O  0.27045081  0.43458589  0.08945532    -0.57800
O157        O  0.17858411  0.42811424  0.14429275    -0.94500
O158        O  0.20647813  0.43894538  0.08692000    -0.92900
O159        O  0.27667779  0.40577853  0.19150049    -0.93300
O160        O  0.23586822  0.40434149  0.25352926    -0.92100
C161        C  0.18813416  0.42318341  0.10640470     1.17000
H162        H  0.29322104  0.46637921  0.15634900     0.32900
H163        H  0.20838807  0.45772108  0.27307395     0.43800
H164        H  0.18189097  0.49396376  0.10729447     0.37300
H165        H  0.23775219  0.06649494  0.21471147     0.33800
H166        H  0.28136406  0.42454573  0.30424943     0.25600
H167        H  0.19664871  0.06370761  0.32189038     0.31500
H168        H  0.16529729  0.09153474  0.17647286     0.37400
H169        H  0.28990099  0.39698269  0.21254161     0.31900
H170        H  0.26036426  0.41704544  0.09965589     0.30800
H171        H  0.23482675  0.47176229  0.02032616     0.32500
H172        H  0.17835701  0.03967359  0.06770535     0.31400
H173        H  0.21921787  0.40138707  0.23450730     0.35400
H174        H  0.12937168  0.43419749  0.18095549     0.28200
H175        H  0.33277804  0.05591225  0.20091210     0.32400
H176        H  0.20187438  0.10065860  0.11368001     0.35200
H177        H  0.26862283  0.43388390  0.05787908     0.27900
H178        H  0.14957395  0.41700023  0.21212727     0.40700
H179        H  0.23242152  0.98524138  0.34317734     0.30800
H180        H  0.27710024  0.45759550  0.31346606     0.38400
H181        H  0.21151198  0.04190281  0.06220521     0.30200
H182        H  0.20280267  0.07827177  0.27755250     0.30300
H183        H  0.31336191  0.07468896  0.17072111     0.30600
C184        C  0.28129795  0.09610868  0.29787672     0.79800
N185        N  0.28588224  0.09703430  0.34072338    -0.78500
C186        C  0.28816609  0.12287063  0.36129502     0.82200
N187        N  0.28417085  0.14776942  0.33891738    -0.78500
C188        C  0.27934256  0.14699297  0.29608368     0.82300
N189        N  0.27808117  0.12113393  0.27558057    -0.80200
C190        C  0.30730811  0.09846401  0.47339986     0.02700
C191        C  0.31177460  0.12505118  0.49407408    -0.13500
C192        C  0.30830200  0.15107191  0.47139970     0.00200
C193        C  0.29980440  0.15034569  0.42834463    -0.12000
C194        C  0.29485635  0.12381195  0.40758108     0.02700
C195        C  0.29856555  0.09798010  0.43056469    -0.11400
H196        H  0.31992424  0.12543768  0.02656933     0.08300
H197        H  0.29809831  0.17052454  0.41078877     0.05800
H198        H  0.29598640  0.07723706  0.41476059     0.05600
C199        C  0.06142264  0.21443416  0.08636855     0.02700
C200        C  0.08654948  0.22742528  0.10202410    -0.13500
C201        C  0.10213638  0.21370951  0.13473548     0.00200
C202        C  0.09181911  0.18795866  0.15259965    -0.12000
C203        C  0.06694994  0.17503363  0.13720675     0.02700
C204        C  0.05191631  0.18806061  0.10370878    -0.11400
H205        H  0.09463970  0.24704237  0.08733624     0.08300
H206        H  0.10383461  0.17726564  0.17776904     0.05800
H207        H  0.03274598  0.17787123  0.09145227     0.05600
C208        C  0.39581398  0.27887255  0.29273406     0.02700
C209        C  0.40553082  0.30494981  0.27462490    -0.13500
C210        C  0.39085133  0.31761475  0.24044369     0.00200
C211        C  0.36606533  0.30448052  0.22499549    -0.12000
C212        C  0.35562192  0.27886994  0.24340319     0.02700
C213        C  0.37096116  0.26556732  0.27678645    -0.11400
H214        H  0.42452636  0.31535913  0.28711273     0.08300
H215        H  0.35408042  0.31501863  0.19966506     0.05800
H216        H  0.36276020  0.24615203  0.29190711     0.05600
Zr217      Zr  0.03100186  0.22282853  0.44073564     2.17500
O218        O  0.07142574  0.19113829  0.45618069    -0.51800
O219        O  0.07211095  0.24790735  0.40903242    -0.75000
O220        O  0.03429622  0.18268867  0.39014294    -0.81800
O221        O  0.02789838  0.24771153  0.05936328    -0.83500
O222        O  0.00476859  0.19288096  0.33435344    -0.79100
O223        O  0.04857249  0.21556146  0.01360545    -0.90800
O224        O  0.05856581  0.29392290  0.39347364    -0.76700
O225        O  0.01447739  0.24890131  0.37984278    -0.86200
O226        O  0.02546587  0.27189603  0.46350702    -0.85900
O227        O  0.48621807  0.20010613  0.42207975    -0.72700
O228        O  0.49649336  0.22213058  0.99761318    -0.84800
Zr229      Zr  0.42897149  0.27625943  0.43794207     2.26400
Zr230      Zr  0.46983291  0.22710452  0.36113746     2.06300
Zr231      Zr  0.49025293  0.27133631  0.01902416     2.10000
Zr232      Zr  0.00805379  0.29761976  0.40283833     1.78800
O233        O  0.47466426  0.26047566  0.09169406    -0.93600
O234        O  0.01678798  0.30598345  0.32685102    -0.41400
O235        O  0.47330694  0.29844102  0.45877257    -0.78100
O236        O  0.46401377  0.27679415  0.38139883    -0.96700
O237        O  0.43441465  0.22698253  0.41655108    -0.90000
O238        O  0.44525229  0.25059250  0.49963905    -0.92900
C239        C  0.07717997  0.27380831  0.39603383     1.00900
C240        C  0.04537757  0.22716175  0.05071620     1.13800
C241        C  0.02375964  0.17741149  0.35302099     1.04600
O242        O  0.48301951  0.23953111  0.28802427    -0.95000
O243        O  0.42977757  0.24682484  0.32141126    -0.90800
O244        O  0.40853419  0.27958307  0.36573511    -0.83900
C245        C  0.41165259  0.26694607  0.32925711     1.11200
O246        O  0.46885942  0.15589883  0.00636262    -0.97000
Zr247      Zr  0.45156600  0.20176587  0.47790335     1.88900
O248        O  0.38746080  0.25214475  0.47006462    -0.73700
O249        O  0.44267655  0.18455223  0.33955907    -0.52900
O250        O  0.43316766  0.16008894  0.43874026    -0.97600
O251        O  0.44477657  0.19458625  0.05466934    -0.54800
O252        O  0.40079823  0.20596900  0.48500694    -0.74200
C253        C  0.38220198  0.22611277  0.48233511     0.98200
O254        O  0.39037835  0.31021229  0.42254934    -0.63000
O255        O  0.02049375  0.31165407  0.04076457    -0.57800
O256        O  0.42868452  0.31816984  0.48603716    -0.94500
O257        O  0.45653272  0.30728069  0.04343117    -0.92900
O258        O  0.02664185  0.34045591  0.43875579    -0.93300
O259        O  0.98592396  0.34185402  0.37665408    -0.92100
C260        C  0.43822438  0.32307550  0.02393430     1.17000
H261        H  0.04323025  0.27981741  0.47394529     0.32900
H262        H  0.45836534  0.28851157  0.35727428     0.43800
H263        H  0.43191208  0.25228260  0.02307690     0.37300
H264        H  0.48771578  0.17971093  0.41562033     0.33800
H265        H  0.03147821  0.32138498  0.32597206     0.25600
H266        H  0.44656594  0.18252735  0.30850827     0.31500
H267        H  0.41504667  0.15500514  0.45318290     0.37400
H268        H  0.03986610  0.34924103  0.41770636     0.31900
H269        H  0.01038831  0.32918863  0.03058489     0.30800
H270        H  0.48522704  0.27427254  0.11007574     0.32500
H271        H  0.42808877  0.20659858  0.06249354     0.31400
H272        H  0.46917844  0.34476035  0.39550437     0.35400
H273        H  0.37942315  0.31211608  0.44959393     0.28200
H274        H  0.08266950  0.19015632  0.42935065     0.32400
H275        H  0.45163940  0.14556368  0.01658422     0.35200
H276        H  0.01870881  0.31236589  0.07234653     0.27900
H277        H  0.39957753  0.32927218  0.41830262     0.40700
H278        H  0.98229871  0.26095642  0.28710558     0.30800
H279        H  0.02682904  0.28838737  0.31677660     0.38400
H280        H  0.46123317  0.20443223  0.06819318     0.30200
H281        H  0.45271837  0.16797326  0.35285276     0.30300
H282        H  0.06327983  0.17149316  0.45973421     0.30600
C283        C  0.03129767  0.15015113  0.33242574     0.79800
N284        N  0.02810292  0.12512612  0.35472767    -0.78500
C285        C  0.02944427  0.09926377  0.33424929     0.82200
N286        N  0.03433426  0.09848719  0.29143130    -0.78500
C287        C  0.03830952  0.12339209  0.26905524     0.82300
N288        N  0.03594317  0.14922796  0.28959983    -0.80200
C289        C  0.05739139  0.14782435  0.15695360     0.02700
C290        C  0.04867811  0.14829970  0.19980017    -0.13500
C291        C  0.04500970  0.12246366  0.22278288     0.00200
C292        C  0.04996307  0.09593892  0.20201401    -0.12000
C293        C  0.05840175  0.09522258  0.15893762     0.02700
C294        C  0.06184070  0.12124370  0.13625670    -0.11400
H295        H  0.04608784  0.16904009  0.21560881     0.08300
H296        H  0.04828589  0.07575777  0.21957072     0.05800
H297        H  0.06995335  0.12086265  0.10374000     0.05600
C298        C  0.06270966  0.02889926  0.08765224     0.02700
C299        C  0.05300960  0.05494854  0.10584227    -0.13500
C300        C  0.06773682  0.06758188  0.13999135     0.00200
C301        C  0.09253275  0.05444295  0.15536973    -0.12000
C302        C  0.10295359  0.02885919  0.13688508     0.02700
C303        C  0.08759769  0.51559770  0.10348428    -0.11400
H304        H  0.03399952  0.06537132  0.09342789     0.08300
H305        H  0.10454576  0.06496129  0.18068956     0.05800
H306        H  0.09579898  0.49621164  0.08828465     0.05600
C307        C  0.39714528  0.46444724  0.29400687     0.02700
C308        C  0.37192405  0.97734130  0.27854849    -0.13500
C309        C  0.35636588  0.46364649  0.24580134     0.00200
C310        C  0.36675525  0.43795900  0.22781311    -0.12000
C311        C  0.39169759  0.42510281  0.24309039     0.02700
C312        C  0.40676843  0.43817706  0.27649511    -0.11400
H313        H  0.36376120  0.99687616  0.29338551     0.08300
H314        H  0.35474100  0.42725631  0.20265452     0.05800
H315        H  0.42601768  0.42806727  0.28862020     0.05600
Zr316      Zr  0.42748456  0.47285560  0.43959906     2.17500
O317        O  0.38722381  0.44097009  0.42403897    -0.51800
O318        O  0.38634386  0.49804028  0.47109876    -0.75000
O319        O  0.42411366  0.43279569  0.49030086    -0.81800
O320        O  0.43061120  0.99771769  0.32105089    -0.83500
O321        O  0.45372304  0.44293275  0.04601385    -0.79100
O322        O  0.40996000  0.46551803  0.36675397    -0.90800
O323        O  0.39993813  0.04402789  0.48675222    -0.76700
O324        O  0.44403230  0.49893558  0.50046097    -0.86200
O325        O  0.43305186  0.02189889  0.41674435    -0.85900
O326        O  0.47226732  0.45014237  0.45829388    -0.72700
O327        O  0.46202618  0.47210913  0.38276898    -0.84800
Zr328      Zr  0.02955630  0.02623471  0.44246544     2.26400
Zr329      Zr  0.48866941  0.47713402  0.01922469     2.06300
Zr330      Zr  0.46831125  0.02128186  0.36128347     2.10000
Zr331      Zr  0.45045591  0.04763854  0.47739283     1.78800
O332        O  0.48353374  0.01004079  0.28856648    -0.93600
O333        O  0.44155180  0.05599571  0.05333697    -0.41400
O334        O  0.48523874  0.04840704  0.42152362    -0.78100
O335        O  0.49447938  0.02681653  0.99895268    -0.96700
O336        O  0.02410229  0.47696074  0.46384882    -0.90000
O337        O  0.01330829  0.00056360  0.38073491    -0.92900
C338        C  0.38130067  0.02393635  0.48416309     1.00900
C339        C  0.41315597  0.47714973  0.32967110     1.13800
C340        C  0.43469168  0.42749546  0.02738547     1.04600
O341        O  0.47557579  0.48947586  0.09239288    -0.95000
O342        O  0.02869578  0.49690126  0.05898289    -0.90800
O343        O  0.04995439  0.02965387  0.01467401    -0.83900
C344        C  0.04683341  0.01701273  0.05114426     1.11200
O345        O  0.48960827  0.40578745  0.37443863    -0.97000
Zr346      Zr  0.00694215  0.45174800  0.40249126     1.88900
O347        O  0.07110403  0.00205795  0.41050195    -0.73700
O348        O  0.01588755  0.43460726  0.04074728    -0.52900
O349        O  0.02551273  0.41021812  0.44179636    -0.97600
O350        O  0.01350936  0.44438892  0.32571969    -0.54800
O351        O  0.05767273  0.45600511  0.39488933    -0.74200
C352        C  0.07631271  0.47608792  0.39788011     0.98200
O353        O  0.06811162  0.06018620  0.45804656    -0.63000
O354        O  0.43816051  0.06155459  0.33912119    -0.57800
O355        O  0.02978218  0.06816933  0.39443405    -0.94500
O356        O  0.00221249  0.05706493  0.33683239    -0.92900
O357        O  0.43206622  0.09038266  0.44102296    -0.93300
O358        O  0.47247119  0.09195527  0.00349099    -0.92100
C359        C  0.02038221  0.07297284  0.35642983     1.17000
H360        H  0.41530028  0.02982958  0.40627004     0.32900
H361        H  0.50010872  0.03854138  0.02307895     0.43800
H362        H  0.02665800  0.00224162  0.35730937     0.37300
H363        H  0.47073932  0.42975307  0.46477848     0.33800
H364        H  0.42726188  0.07178257  0.05415832     0.25600
H365        H  0.01231258  0.43279363  0.07191184     0.31500
H366        H  0.04333482  0.40481159  0.42678159     0.37400
H367        H  0.41893423  0.09936685  0.46201710     0.31900
H368        H  0.44778895  0.07903086  0.35048820     0.30800
H369        H  0.47330973  0.02412070  0.27022056     0.32500
H370        H  0.03007083  0.45651686  0.31768271     0.31400
H371        H  0.48976552  0.09433906  0.98562398     0.35400
H372        H  0.07915151  0.06203343  0.43107265     0.28200
H373        H  0.37580632  0.44015059  0.45071585     0.32400
H374        H  0.00681463  0.39542356  0.36423032     0.35200
H375        H  0.44077186  0.06278748  0.30770448     0.27900
H376        H  0.05890778  0.07925912  0.96214521     0.40700
H377        H  0.47535603  0.51091689  0.09294149     0.29200
H378        H  0.43100458  0.03864415  0.06317444     0.38400
H379        H  0.99692761  0.45405971  0.31226402     0.30200
H380        H  0.00565087  0.41798418  0.02791829     0.30300
H381        H  0.39541975  0.42131534  0.42088408     0.30600
C382        C  0.40023635  0.34526032  0.22149209     0.02700
C383        C  0.40868842  0.34596998  0.17841174    -0.13500
C384        C  0.41365537  0.37249428  0.15762728     0.00200
C385        C  0.41000684  0.39833585  0.18058657    -0.12000
C386        C  0.40126776  0.39787881  0.22340647     0.02700
C387        C  0.39680287  0.37130295  0.24413600    -0.11400
H388        H  0.41034933  0.32578834  0.16085513     0.08300
H389        H  0.41261343  0.41907229  0.16476904     0.05800
H390        H  0.38867548  0.37094522  0.27664388     0.05600
C391        C  0.42717864  0.40022550  0.04796310     0.79800
N392        N  0.42258963  0.39928294  0.09079866    -0.78500
C393        C  0.42030931  0.37343924  0.11134588     0.82200
N394        N  0.42430742  0.34854912  0.08895665    -0.78500
C395        C  0.42913737  0.34934478  0.04612533     0.82300
N396        N  0.43040599  0.37521167  0.52564725    -0.80200
C397        C  0.14707535  0.28177913  0.83629608     0.02700
C398        C  0.15664197  0.30808901  0.85375138    -0.13500
C399        C  0.14159700  0.32111446  0.88722718     0.00200
C400        C  0.11670348  0.30819962  0.90256853    -0.12000
C401        C  0.10634851  0.28249610  0.88459461     0.02700
C402        C  0.12191178  0.26881760  0.85184002    -0.11400
H403        H  0.17584595  0.31825055  0.84155975     0.08300
H404        H  0.10468910  0.31887568  0.92775367     0.05800
H405        H  0.11378498  0.24925200  0.83704736     0.05600
C406        C  0.31275224  0.21736774  0.54274514     0.02700
C407        C  0.33763068  0.23065863  0.52686099    -0.13500
C408        C  0.35293510  0.21740652  0.99339714     0.00200
C409        C  0.34246796  0.19184023  0.97490357    -0.12000
C410        C  0.31767359  0.17871480  0.99032499     0.02700
C411        C  0.30300225  0.19134342  0.02453536    -0.11400
H412        H  0.34586381  0.25003052  0.54206155     0.08300
H413        H  0.35444380  0.18132321  0.94954266     0.05800
H414        H  0.28399335  0.18093618  0.53698259     0.05600
Zr415      Zr  0.17751500  0.27344604  0.69073867     2.17500
O416        O  0.13725004  0.30534799  0.70621174    -0.51800
O417        O  0.13635807  0.24830936  0.65924640    -0.75000
O418        O  0.17418076  0.31350635  0.64006832    -0.81800
O419        O  0.18058505  0.24854773  0.80927280    -0.83500
O420        O  0.20369133  0.30328740  0.58427210    -0.79100
O421        O  0.15990097  0.28071155  0.76355092    -0.90800
O422        O  0.14993224  0.20230871  0.64363479    -0.76700
O423        O  0.19404438  0.24735623  0.62986850    -0.86200
O424        O  0.18305421  0.22440161  0.71356835    -0.85900
O425        O  0.22230549  0.29615034  0.67202529    -0.72700
O426        O  0.21204666  0.27419286  0.74758126    -0.84800
Zr427      Zr  0.27955565  0.22002760  0.68791260     2.26400
Zr428      Zr  0.23868806  0.26913793  0.61109525     2.06300
Zr429      Zr  0.21829535  0.22500387  0.76903704     2.10000
Zr430      Zr  0.20045982  0.19865378  0.65292899     1.78800
O431        O  0.23347006  0.23612149  0.84181587    -0.93600
O432        O  0.19160016  0.19028286  0.57698429    -0.41400
O433        O  0.23522718  0.19787156  0.70881296    -0.78100
O434        O  0.24449803  0.21946152  0.63139585    -0.96700
O435        O  0.27411426  0.26929615  0.66648306    -0.90000
O436        O  0.26329857  0.24571739  0.74961522    -0.92900
C437        C  0.13130095  0.22240949  0.64622318     1.00900
C438        C  0.16310261  0.26908846  0.80063767     1.13800
C439        C  0.18470571  0.31876333  0.60294145     1.04600
O440        O  0.22557473  0.25673222  0.53795837    -0.95000
O441        O  0.27875560  0.24937398  0.57141927    -0.90800
O442        O  0.30001063  0.21662388  0.61573791    -0.83900
C443        C  0.29689547  0.22926614  0.57926691     1.11200
O444        O  0.23961317  0.34039397  0.75618773    -0.97000
Zr445      Zr  0.25697779  0.29453130  0.72782726     1.88900
O446        O  0.32107621  0.24411932  0.72009631    -0.73700
O447        O  0.26588106  0.31163251  0.58936627    -0.52900
O448        O  0.27537743  0.33613546  0.68850183    -0.97600
O449        O  0.26381179  0.30182668  0.80456484    -0.54800
O450        O  0.30774993  0.29030790  0.73499073    -0.74200
C451        C  0.32634564  0.27015824  0.73234210     0.98200
O452        O  0.31811413  0.18606209  0.67241587    -0.63000
O453        O  0.18815569  0.18464195  0.79088930    -0.57800
O454        O  0.27967146  0.17804801  0.73585348    -0.94500
O455        O  0.25220629  0.18925172  0.79352045    -0.92900
O456        O  0.18205067  0.15591288  0.68928496    -0.93300
O457        O  0.22247823  0.15436282  0.62673076    -0.92100
C458        C  0.27030885  0.17328576  0.77388939     1.17000
H459        H  0.16529770  0.21648088  0.72403763     0.32900
H460        H  0.25014213  0.20773753  0.60727863     0.43800
H461        H  0.27663833  0.24403483  0.77305004     0.37300
H462        H  0.22079214  0.31653909  0.66552944     0.33800
H463        H  0.17704103  0.17475248  0.57616337     0.25600
H464        H  0.26230045  0.31337692  0.55819479     0.31500
H465        H  0.29341470  0.34134011  0.70308494     0.37400
H466        H  0.16907027  0.14683545  0.66816840     0.31900
H467        H  0.19807648  0.16715933  0.78012366     0.30800
H468        H  0.22318606  0.22205142  0.86010384     0.32500
H469        H  0.28037621  0.28966365  0.81246947     0.31400
H470        H  0.23990164  0.15209431  0.64434404     0.35400
H471        H  0.32906965  0.18412969  0.69945397     0.28200
H472        H  0.12595644  0.30633728  0.67942924     0.32400
H473        H  0.25684982  0.35086467  0.76603254     0.35200
H474        H  0.19032377  0.18366495  0.82240086     0.27900
H475        H  0.30889386  0.16701450  0.66815327     0.40700
H476        H  0.22533436  0.23529180  0.53745721     0.30800
H477        H  0.18137605  0.20779771  0.56701549     0.38400
H478        H  0.24725502  0.29217897  0.81812948     0.30200
H479        H  0.25563681  0.32827670  0.60212294     0.30300
H480        H  0.14548071  0.32496404  0.70967634     0.30600
C481        C  0.15114775  0.34833842  0.90693694     0.02700
C482        C  0.15982733  0.34788390  0.94978837    -0.13500
C483        C  0.16347230  0.37372857  0.47274567     0.00200
C484        C  0.15852860  0.40024765  0.95194490    -0.12000
C485        C  0.15014299  0.40095512  0.90883782     0.02700
C486        C  0.14673752  0.37491396  0.88618169    -0.11400
H487        H  0.16240840  0.32714888  0.96561967     0.08300
H488        H  0.16017542  0.42043094  0.96949979     0.05800
H489        H  0.13866532  0.37527427  0.85364353     0.05600
C490        C  0.17716799  0.34602338  0.58236747     0.79800
N491        N  0.17251238  0.34695829  0.53955092    -0.78500
C492        C  0.17015196  0.37279924  0.51902041     0.82200
N493        N  0.17414010  0.39769794  0.54140421    -0.78500
C494        C  0.17902938  0.39690848  0.58422358     0.82300
N495        N  0.18037288  0.37104014  0.60468350    -0.80200
C496        C  0.14584484  0.46738270  0.83766084     0.02700
C497        C  0.12096296  0.98067258  0.85352895    -0.13500
C498        C  0.10558172  0.46735786  0.88685339     0.00200
C499        C  0.11597964  0.44172653  0.90524371    -0.12000
C500        C  0.14078998  0.42860263  0.88986912     0.02700
C501        C  0.15553587  0.44129543  0.85577285    -0.11400
H502        H  0.11277921  0.00009174  0.83839862     0.08300
H503        H  0.10394877  0.43117352  0.93051317     0.05800
H504        H  0.17455319  0.43089488  0.84334251     0.05600
C505        C  0.31135453  0.03180507  0.54391164     0.02700
C506        C  0.30180155  0.05815283  0.02653373    -0.13500
C507        C  0.31688766  0.07125796  0.99314917     0.00200
C508        C  0.34182214  0.05840659  0.97785763    -0.12000
C509        C  0.35214290  0.03264381  0.99568601     0.02700
C510        C  0.33654186  0.51888668  0.52834476    -0.11400
H511        H  0.28257434  0.06827819  0.53870620     0.08300
H512        H  0.35386275  0.06914670  0.95275895     0.05800
H513        H  0.34465539  0.49928407  0.54304639     0.05600
Zr514      Zr  0.28103524  0.02336421  0.68961121     2.17500
O515        O  0.32147792  0.05501956  0.67412932    -0.51800
O516        O  0.32211781  0.99824649  0.72138612    -0.75000
O517        O  0.28433887  0.06355530  0.74014194    -0.81800
O518        O  0.27784472  0.49850198  0.57091425    -0.83500
O519        O  0.25481832  0.05335425  0.79593689    -0.79100
O520        O  0.29853810  0.03062967  0.61668879    -0.90800
O521        O  0.30858353  0.45220895  0.73681941    -0.76700
O522        O  0.26450223  0.99729454  0.75050549    -0.86200
O523        O  0.27546268  0.47430669  0.66680205    -0.85900
O524        O  0.23625271  0.04609842  0.70825860    -0.72700
O525        O  0.24651035  0.02406870  0.63275909    -0.84800
Zr526      Zr  0.17896715  0.47000261  0.69244352     2.26400
Zr527      Zr  0.21986969  0.01912362  0.76921460     2.06300
Zr528      Zr  0.24022480  0.47488252  0.61131011     2.10000
Zr529      Zr  0.25806110  0.44857979  0.72747628     1.78800
O530        O  0.22465677  0.48587832  0.53867773    -0.93600
O531        O  0.26684532  0.44011695  0.80343217    -0.41400
O532        O  0.22328429  0.44778968  0.67157671    -0.78100
O533        O  0.21403537  0.46943711  0.74894838    -0.96700
O534        O  0.18443708  0.01928107  0.71381672    -0.90000
O535        O  0.19523932  0.49564781  0.63072161    -0.92900
C536        C  0.32719356  0.47233150  0.73433350     1.00900
C537        C  0.29532274  0.01905236  0.57956346     1.13800
C538        C  0.27379737  0.06883620  0.77726499     1.04600
O539        O  0.23304623  0.00667111  0.84231942    -0.95000
O540        O  0.17984025  0.99941616  0.80901089    -0.90800
O541        O  0.15856479  0.46669309  0.76467081    -0.83900
C542        C  0.16170184  0.47930948  0.80115825     1.11200
O543        O  0.21902828  0.09035564  0.62421651    -0.97000
Zr544      Zr  0.20159984  0.04447063  0.65243613     1.88900
O545        O  0.13743680  0.49416342  0.66045802    -0.73700
O546        O  0.19275246  0.06169565  0.79083908    -0.52900
O547        O  0.18308008  0.08609991  0.69156888    -0.97600
O548        O  0.19500291  0.05170910  0.57564855    -0.54800
O549        O  0.15085273  0.04024010  0.64497769    -0.74200
C550        C  0.13222174  0.02014260  0.64790275     0.98200
O551        O  0.14037979  0.43607051  0.70795510    -0.63000
O552        O  0.27045082  0.43458592  0.58945524    -0.57800
O553        O  0.17858412  0.42811422  0.64429276    -0.94500
O554        O  0.20647809  0.43894540  0.58691996    -0.92900
O555        O  0.27667777  0.40577855  0.69150063    -0.93300
O556        O  0.23586821  0.40434154  0.75352940    -0.92100
C557        C  0.18813415  0.42318340  0.60640469     1.17000
H558        H  0.29322170  0.46637902  0.65634863     0.32900
H559        H  0.20838805  0.45772112  0.77307387     0.43800
H560        H  0.18189136  0.49396377  0.60729490     0.37300
H561        H  0.23775211  0.06649483  0.71471130     0.33800
H562        H  0.28136370  0.42454616  0.80424966     0.25600
H563        H  0.19664883  0.06370787  0.82189036     0.31500
H564        H  0.16529728  0.09153473  0.67647263     0.37400
H565        H  0.28990097  0.39698273  0.71254176     0.31900
H566        H  0.26036440  0.41704554  0.59965597     0.30800
H567        H  0.23482695  0.47176201  0.52032581     0.32500
H568        H  0.17835709  0.03967338  0.56770527     0.31400
H569        H  0.21921775  0.40138724  0.73450775     0.35400
H570        H  0.12937185  0.43419747  0.68095595     0.28200
H571        H  0.33277799  0.05591229  0.70091227     0.32400
H572        H  0.20187485  0.10065836  0.61368010     0.35200
H573        H  0.26862264  0.43388378  0.55787854     0.27900
H574        H  0.14957402  0.41700018  0.71212760     0.40700
H575        H  0.23242153  0.98524190  0.84317758     0.30800
H576        H  0.27710055  0.45759607  0.81346626     0.38400
H577        H  0.21151210  0.04190267  0.56220491     0.30200
H578        H  0.20280258  0.07827188  0.77755193     0.30300
H579        H  0.31336189  0.07468900  0.67072124     0.30600
C580        C  0.28129793  0.09610868  0.79787680     0.79800
N581        N  0.28588221  0.09703431  0.84072346    -0.78500
C582        C  0.28816607  0.12287064  0.86129511     0.82200
N583        N  0.28417086  0.14776944  0.83891743    -0.78500
C584        C  0.27934262  0.14699299  0.79608371     0.82300
N585        N  0.27808119  0.12113394  0.77558064    -0.80200
C586        C  0.30730811  0.09846402  0.97339992     0.02700
C587        C  0.31177469  0.12505118  0.99407410    -0.13500
C588        C  0.30830203  0.15107190  0.97139976     0.00200
C589        C  0.29980438  0.15034569  0.92834472    -0.12000
C590        C  0.29485633  0.12381196  0.90758117     0.02700
C591        C  0.29856551  0.09798012  0.93056477    -0.11400
H592        H  0.31992409  0.12543769  0.52656936     0.08300
H593        H  0.29809824  0.17052451  0.91078886     0.05800
H594        H  0.29598632  0.07723709  0.91476065     0.05600
C595        C  0.06142260  0.21443425  0.58636865     0.02700
C596        C  0.08654944  0.22742535  0.60202421    -0.13500
C597        C  0.10213634  0.21370957  0.63473558     0.00200
C598        C  0.09181908  0.18795873  0.65259975    -0.12000
C599        C  0.06694995  0.17503370  0.63720683     0.02700
C600        C  0.05191630  0.18806067  0.60370885    -0.11400
H601        H  0.09463969  0.24704244  0.58733638     0.08300
H602        H  0.10383459  0.17726573  0.67776912     0.05800
H603        H  0.03274602  0.17787127  0.59145228     0.05600
C604        C  0.39581404  0.27887250  0.79273395     0.02700
C605        C  0.40553081  0.30494983  0.77462498    -0.13500
C606        C  0.39085130  0.31761481  0.74044380     0.00200
C607        C  0.36606532  0.30448058  0.72499555    -0.12000
C608        C  0.35562196  0.27886995  0.74340312     0.02700
C609        C  0.37096127  0.26556721  0.77678623    -0.11400
H610        H  0.42452632  0.31535916  0.78711290     0.08300
H611        H  0.35408039  0.31501873  0.69966514     0.05800
H612        H  0.36276034  0.24615183  0.79190672     0.05600
Zr613      Zr  0.03100194  0.22282854  0.94073560     2.17500
O614        O  0.07142587  0.19113836  0.95618085    -0.51800
O615        O  0.07211095  0.24790737  0.90903224    -0.75000
O616        O  0.03429636  0.18268869  0.89014296    -0.81800
O617        O  0.02789851  0.24771177  0.55936316    -0.83500
O618        O  0.00476886  0.19288112  0.83435337    -0.79100
O619        O  0.04857241  0.21556146  0.51360550    -0.90800
O620        O  0.05856580  0.29392295  0.89347373    -0.76700
O621        O  0.01447743  0.24890135  0.87984277    -0.86200
O622        O  0.02546588  0.27189603  0.96350707    -0.85900
O623        O  0.48621810  0.20010616  0.92207973    -0.72700
O624        O  0.49649337  0.22213064  0.49761330    -0.84800
Zr625      Zr  0.42897147  0.27625934  0.93794213     2.26400
Zr626      Zr  0.46983294  0.22710454  0.86113746     2.06300
Zr627      Zr  0.49025297  0.27133643  0.51902405     2.10000
Zr628      Zr  0.00805378  0.29761978  0.90283842     1.78800
O629        O  0.47466443  0.26047591  0.59169401    -0.93600
O630        O  0.01678797  0.30598368  0.82685116    -0.41400
O631        O  0.47330693  0.29844086  0.95877265    -0.78100
O632        O  0.46401376  0.27679419  0.88139887    -0.96700
O633        O  0.43441463  0.22698244  0.91655107    -0.90000
O634        O  0.44525229  0.25059237  0.99963907    -0.92900
C635        C  0.07717997  0.27380836  0.89603376     1.00900
C636        C  0.04537757  0.22716186  0.55071621     1.13800
C637        C  0.02375987  0.17741159  0.85302093     1.04600
O638        O  0.48301946  0.23953112  0.78802420    -0.95000
O639        O  0.42977770  0.24682490  0.82141115    -0.90800
O640        O  0.40853420  0.27958304  0.86573504    -0.83900
C641        C  0.41165264  0.26694605  0.82925702     1.11200
O642        O  0.46885938  0.15589894  0.50636273    -0.97000
Zr643      Zr  0.45156599  0.20176578  0.97790333     1.88900
O644        O  0.38746085  0.25214470  0.97006475    -0.73700
O645        O  0.44267654  0.18455226  0.83955915    -0.52900
O646        O  0.43316762  0.16008895  0.93874007    -0.97600
O647        O  0.44477635  0.19458655  0.55466939    -0.54800
O648        O  0.40079824  0.20596894  0.98500712    -0.74200
C649        C  0.38220201  0.22611273  0.98233524     0.98200
O650        O  0.39037833  0.31021220  0.92254937    -0.63000
O651        O  0.02049376  0.31165417  0.54076470    -0.57800
O652        O  0.42868445  0.31816978  0.98603710    -0.94500
O653        O  0.45653272  0.30728073  0.54343129    -0.92900
O654        O  0.02664183  0.34045577  0.93875628    -0.93300
O655        O  0.98592389  0.34185412  0.87665455    -0.92100
C656        C  0.43822443  0.32307557  0.52393439     1.17000
H657        H  0.04323001  0.27981737  0.97394513     0.32900
H658        H  0.45836548  0.28851131  0.85727509     0.43800
H659        H  0.43191250  0.25228271  0.52307604     0.37300
H660        H  0.48771579  0.17971097  0.91562018     0.33800
H661        H  0.03147817  0.32138535  0.82597232     0.25600
H662        H  0.44656563  0.18252758  0.80850860     0.31500
H663        H  0.41504649  0.15500537  0.95318233     0.37400
H664        H  0.03986628  0.34924083  0.91770706     0.31900
H665        H  0.01038853  0.32918869  0.53058458     0.30800
H666        H  0.48522717  0.27427269  0.61007543     0.32500
H667        H  0.42808870  0.20659900  0.56249350     0.31400
H668        H  0.46917861  0.34476057  0.89550523     0.35400
H669        H  0.37942291  0.31211595  0.94959453     0.28200
H670        H  0.08266977  0.19015640  0.92935057     0.32400
H671        H  0.45163934  0.14556388  0.51658472     0.35200
H672        H  0.01870847  0.31236616  0.57234659     0.27900
H673        H  0.39957724  0.32927173  0.91830291     0.40700
H674        H  0.98229929  0.26095601  0.78710557     0.30800
H675        H  0.02682904  0.28838781  0.81677676     0.38400
H676        H  0.46123298  0.20443230  0.56819328     0.30200
H677        H  0.45271857  0.16797322  0.85285257     0.30300
H678        H  0.06328006  0.17149327  0.95973427     0.30600
C679        C  0.03129789  0.15015122  0.83242569     0.79800
N680        N  0.02810308  0.12512622  0.85472764    -0.78500
C681        C  0.02944429  0.09926387  0.83424925     0.82200
N682        N  0.03433421  0.09848726  0.79143126    -0.78500
C683        C  0.03830953  0.12339214  0.76905517     0.82300
N684        N  0.03594330  0.14922802  0.78959977    -0.80200
C685        C  0.05739149  0.14782438  0.65695362     0.02700
C686        C  0.04867812  0.14829972  0.69980016    -0.13500
C687        C  0.04500967  0.12246369  0.72278284     0.00200
C688        C  0.04996301  0.09593896  0.70201398    -0.12000
C689        C  0.05840178  0.09522262  0.65893761     0.02700
C690        C  0.06184087  0.12124375  0.63625674    -0.11400
H691        H  0.04608779  0.16904011  0.71560879     0.08300
H692        H  0.04828578  0.07575781  0.71957069     0.05800
H693        H  0.06995359  0.12086270  0.60374006     0.05600
C694        C  0.06270953  0.02889919  0.58765239     0.02700
C695        C  0.05300952  0.05494851  0.60584240    -0.13500
C696        C  0.06773680  0.06758188  0.63999139     0.00200
C697        C  0.09253273  0.05444295  0.65536974    -0.12000
C698        C  0.10295361  0.02885924  0.63688499     0.02700
C699        C  0.08759761  0.51559766  0.60348444    -0.11400
H700        H  0.03399946  0.06537131  0.59342804     0.08300
H701        H  0.10454573  0.06496126  0.68068962     0.05800
H702        H  0.09579888  0.49621153  0.58828494     0.05600
C703        C  0.39714527  0.46444728  0.79400699     0.02700
C704        C  0.37192403  0.97734132  0.77854855    -0.13500
C705        C  0.35636591  0.46364655  0.74580140     0.00200
C706        C  0.36675532  0.43795910  0.72781307    -0.12000
C707        C  0.39169760  0.42510285  0.74309048     0.02700
C708        C  0.40676841  0.43817709  0.77649525    -0.11400
H709        H  0.36376118  0.99687617  0.79338559     0.08300
H710        H  0.35474112  0.42725647  0.70265436     0.05800
H711        H  0.42601764  0.42806729  0.78862039     0.05600
Zr712      Zr  0.42748456  0.47285564  0.93959912     2.17500
O713        O  0.38722378  0.44097012  0.92403931    -0.51800
O714        O  0.38634385  0.49804029  0.97109892    -0.75000
O715        O  0.42411378  0.43279570  0.99030087    -0.81800
O716        O  0.43061118  0.99771773  0.82105097    -0.83500
O717        O  0.45372301  0.44293278  0.54601372    -0.79100
O718        O  0.40996010  0.46551804  0.86675403    -0.90800
O719        O  0.39993813  0.04402780  0.98675241    -0.76700
O720        O  0.44403234  0.49893556  0.00046100    -0.86200
O721        O  0.43305185  0.02189895  0.91674446    -0.85900
O722        O  0.47226734  0.45014242  0.95829382    -0.72700
O723        O  0.46202613  0.47210917  0.88276891    -0.84800
Zr724      Zr  0.02955628  0.02623477  0.94246552     2.26400
Zr725      Zr  0.48866939  0.47713405  0.51922466     2.06300
Zr726      Zr  0.46831122  0.02128198  0.86128352     2.10000
Zr727      Zr  0.45045593  0.04763852  0.97739300     1.78800
O728        O  0.48353372  0.01004104  0.78856646    -0.93600
O729        O  0.44155178  0.05599592  0.55333681    -0.41400
O730        O  0.48523871  0.04840708  0.92152375    -0.78100
O731        O  0.49447939  0.02681656  0.49895261    -0.96700
O732        O  0.02410228  0.47696077  0.96384871    -0.90000
O733        O  0.01330829  0.00056370  0.88073492    -0.92900
C734        C  0.38130064  0.02393629  0.98416308     1.00900
C735        C  0.41315599  0.47714977  0.82967117     1.13800
C736        C  0.43469161  0.42749550  0.52738546     1.04600
O737        O  0.47557556  0.48947604  0.59239268    -0.95000
O738        O  0.02869575  0.49690114  0.55898303    -0.90800
O739        O  0.04995427  0.02965379  0.51467410    -0.83900
C740        C  0.04683328  0.01701267  0.55114437     1.11200
O741        O  0.48960824  0.40578758  0.87443837    -0.97000
Zr742      Zr  0.00694213  0.45174806  0.90249113     1.88900
O743        O  0.07110402  0.00205797  0.91050210    -0.73700
O744        O  0.01588748  0.43460731  0.54074763    -0.52900
O745        O  0.02551265  0.41021799  0.94179589    -0.97600
O746        O  0.01350935  0.44438916  0.82571954    -0.54800
O747        O  0.05767271  0.45600518  0.89488920    -0.74200
C748        C  0.07631269  0.47608797  0.89788009     0.98200
O749        O  0.06811158  0.06018625  0.95804669    -0.63000
O750        O  0.43816034  0.06155463  0.83912138    -0.57800
O751        O  0.02978222  0.06816938  0.89443400    -0.94500
O752        O  0.00221237  0.05706514  0.83683243    -0.92900
O753        O  0.43206635  0.09038279  0.94102339    -0.93300
O754        O  0.47247100  0.09195549  0.50349044    -0.92100
C755        C  0.02038217  0.07297296  0.85642984     1.17000
H756        H  0.41530025  0.02982963  0.90627020     0.32900
H757        H  0.50010854  0.03854106  0.52307805     0.43800
H758        H  0.02665762  0.00224168  0.85731011     0.37300
H759        H  0.47073930  0.42975304  0.96477836     0.33800
H760        H  0.42726170  0.07178278  0.55415806     0.25600
H761        H  0.01231227  0.43279362  0.57191266     0.31500
H762        H  0.04333506  0.40481156  0.92678113     0.37400
H763        H  0.41893455  0.09936693  0.96201751     0.31900
H764        H  0.44778868  0.07903079  0.85048822     0.30800
H765        H  0.47330936  0.02412095  0.77022034     0.32500
H766        H  0.03007082  0.45651716  0.81768260     0.31400
H767        H  0.48976511  0.09433932  0.48562356     0.35400
H768        H  0.07915143  0.06203354  0.93107282     0.28200
H769        H  0.37580622  0.44015058  0.95071669     0.32400
H770        H  0.00681438  0.39542388  0.86423004     0.35200
H771        H  0.44077159  0.06278748  0.80770454     0.27900
H772        H  0.05890784  0.07925908  0.46214496     0.40700
H773        H  0.47535644  0.51091742  0.59294146     0.29200
H774        H  0.43100479  0.03864453  0.56317438     0.38400
H775        H  0.99692751  0.45406007  0.81226386     0.30200
H776        H  0.00565105  0.41798441  0.52791869     0.30300
H777        H  0.39541963  0.42131551  0.92088442     0.30600
C778        C  0.40023637  0.34526036  0.72149221     0.02700
C779        C  0.40868851  0.34597001  0.67841191    -0.13500
C780        C  0.41365541  0.37249432  0.65762740     0.00200
C781        C  0.41000682  0.39833589  0.68058667    -0.12000
C782        C  0.40126776  0.39787886  0.72340656     0.02700
C783        C  0.39680285  0.37130299  0.74413608    -0.11400
H784        H  0.41034949  0.32578837  0.66085533     0.08300
H785        H  0.41261337  0.41907235  0.66476915     0.05800
H786        H  0.38867543  0.37094526  0.77664393     0.05600
C787        C  0.42717865  0.40022555  0.54796319     0.79800
N788        N  0.42258973  0.39928299  0.59079878    -0.78500
C789        C  0.42030938  0.37343929  0.61134601     0.82200
N790        N  0.42430750  0.34854917  0.58895675    -0.78500
C791        C  0.42913742  0.34934484  0.54612544     0.82300
N792        N  0.43040602  0.37521162  0.02564716    -0.80200
C793        C  0.14707521  0.78177909  0.33629598     0.02700
C794        C  0.15664185  0.80808900  0.35375121    -0.13500
C795        C  0.14159698  0.82111445  0.38722711     0.00200
C796        C  0.11670350  0.80819957  0.40256857    -0.12000
C797        C  0.10634849  0.78249606  0.38459465     0.02700
C798        C  0.12191168  0.76881755  0.35184004    -0.11400
H799        H  0.17584581  0.81825051  0.34155945     0.08300
H800        H  0.10468919  0.81887560  0.42775382     0.05800
H801        H  0.11378486  0.74925191  0.33704750     0.05600
C802        C  0.31275226  0.71736771  0.04274524     0.02700
C803        C  0.33763066  0.73065864  0.02686102    -0.13500
C804        C  0.35293509  0.71740650  0.49339712     0.00200
C805        C  0.34246793  0.69184020  0.47490358    -0.12000
C806        C  0.31767352  0.67871480  0.49032494     0.02700
C807        C  0.30300220  0.69134345  0.52453529    -0.11400
H808        H  0.34586379  0.75003058  0.04206153     0.08300
H809        H  0.35444376  0.68132314  0.44954271     0.05800
H810        H  0.28399340  0.68093608  0.03698283     0.05600
Zr811      Zr  0.17751499  0.77344598  0.19073859     2.17500
O812        O  0.13724993  0.80534783  0.20621176    -0.51800
O813        O  0.13635815  0.74830927  0.15924619    -0.75000
O814        O  0.17418075  0.81350627  0.14006826    -0.81800
O815        O  0.18058503  0.74854774  0.30927280    -0.83500
O816        O  0.20369149  0.80328744  0.08427220    -0.79100
O817        O  0.15990083  0.78071140  0.26355081    -0.90800
O818        O  0.14993226  0.70230858  0.14363469    -0.76700
O819        O  0.19404440  0.74735617  0.12986840    -0.86200
O820        O  0.18305423  0.72440155  0.21356823    -0.85900
O821        O  0.22230549  0.79615028  0.17202537    -0.72700
O822        O  0.21204665  0.77419284  0.24758116    -0.84800
Zr823      Zr  0.27955565  0.72002755  0.18791266     2.26400
Zr824      Zr  0.23868810  0.76913786  0.11109530     2.06300
Zr825      Zr  0.21829534  0.72500390  0.26903698     2.10000
Zr826      Zr  0.20045988  0.69865370  0.15292888     1.78800
O827        O  0.23347007  0.73612160  0.34181575    -0.93600
O828        O  0.19160021  0.69028283  0.07698426    -0.41400
O829        O  0.23522717  0.69787152  0.20881293    -0.78100
O830        O  0.24449807  0.71946148  0.13139588    -0.96700
O831        O  0.27411430  0.76929611  0.16648312    -0.90000
O832        O  0.26329859  0.74571734  0.24961530    -0.92900
C833        C  0.13130099  0.72240939  0.14622304     1.00900
C834        C  0.16310249  0.76908838  0.30063759     1.13800
C835        C  0.18470579  0.81876331  0.10294148     1.04600
O836        O  0.22557479  0.75673223  0.03795837    -0.95000
O837        O  0.27875565  0.74937393  0.07141942    -0.90800
O838        O  0.30001069  0.71662381  0.11573803    -0.83900
C839        C  0.29689552  0.72926608  0.07926704     1.11200
O840        O  0.23961316  0.84039392  0.25618762    -0.97000
Zr841      Zr  0.25697780  0.79453123  0.22782735     1.88900
O842        O  0.32107618  0.74411928  0.22009645    -0.73700
O843        O  0.26588112  0.81163239  0.08936613    -0.52900
O844        O  0.27537729  0.83613561  0.18850230    -0.97600
O845        O  0.26381173  0.80182647  0.30456496    -0.54800
O846        O  0.30774989  0.79030786  0.23499083    -0.74200
C847        C  0.32634560  0.77015822  0.23234217     0.98200
O848        O  0.31811409  0.68606208  0.17241587    -0.63000
O849        O  0.18815559  0.68464208  0.29088932    -0.57800
O850        O  0.27967139  0.67804799  0.23585352    -0.94500
O851        O  0.25220614  0.68925167  0.29352043    -0.92900
O852        O  0.18205091  0.65591276  0.18928486    -0.93300
O853        O  0.22247838  0.65436285  0.12673031    -0.92100
C854        C  0.27030875  0.67328573  0.27388941     1.17000
H855        H  0.16529795  0.71648091  0.22403736     0.32900
H856        H  0.25014236  0.70773717  0.10727789     0.43800
H857        H  0.27663866  0.74403470  0.27305074     0.37300
H858        H  0.22079209  0.81653893  0.16552965     0.33800
H859        H  0.17704082  0.67475228  0.07616344     0.25600
H860        H  0.26230044  0.81337683  0.05819478     0.31500
H861        H  0.29341469  0.84134002  0.20308506     0.37400
H862        H  0.16907032  0.64683544  0.16816843     0.31900
H863        H  0.19807593  0.66715984  0.28012375     0.30800
H864        H  0.22318629  0.72205159  0.36010355     0.32500
H865        H  0.28037642  0.78966289  0.31246985     0.31400
H866        H  0.23990191  0.65209407  0.14434421     0.35400
H867        H  0.32906939  0.68412982  0.19945300     0.28200
H868        H  0.12595644  0.80633707  0.17942982     0.32400
H869        H  0.25684992  0.85086460  0.26603284     0.35200
H870        H  0.19032387  0.68366501  0.32240156     0.27900
H871        H  0.30889340  0.66701386  0.16815323     0.40700
H872        H  0.22533458  0.73529146  0.03745703     0.30800
H873        H  0.18137625  0.70779752  0.06701559     0.38400
H874        H  0.24725503  0.79217899  0.31812945     0.30200
H875        H  0.25563686  0.82827676  0.10212295     0.30300
H876        H  0.14548070  0.82496423  0.20967634     0.30600
C877        C  0.15114776  0.84833841  0.40693692     0.02700
C878        C  0.15982733  0.84788388  0.44978837    -0.13500
C879        C  0.16347230  0.87372855  0.97274570     0.00200
C880        C  0.15852867  0.90024767  0.45194493    -0.12000
C881        C  0.15014303  0.90095513  0.40883788     0.02700
C882        C  0.14673755  0.87491397  0.38618171    -0.11400
H883        H  0.16240832  0.82714884  0.46561969     0.08300
H884        H  0.16017548  0.92043098  0.46949981     0.05800
H885        H  0.13866531  0.87527431  0.35364355     0.05600
C886        C  0.17716806  0.84602337  0.08236751     0.79800
N887        N  0.17251244  0.84695830  0.03955096    -0.78500
C888        C  0.17015200  0.87279925  0.01902046     0.82200
N889        N  0.17414013  0.89769795  0.04140429    -0.78500
C890        C  0.17902941  0.89690847  0.08422365     0.82300
N891        N  0.18037292  0.87104013  0.10468357    -0.80200
C892        C  0.14584490  0.96738267  0.33766094     0.02700
C893        C  0.12096298  0.48067258  0.35352906    -0.13500
C894        C  0.10558175  0.96735781  0.38685348     0.00200
C895        C  0.11597967  0.94172649  0.40524381    -0.12000
C896        C  0.14079003  0.92860263  0.38986924     0.02700
C897        C  0.15553596  0.94129545  0.35577305    -0.11400
H898        H  0.11277920  0.50009175  0.33839874     0.08300
H899        H  0.10394880  0.93117345  0.43051322     0.05800
H900        H  0.17455331  0.93089491  0.34334279     0.05600
C901        C  0.31135445  0.53180511  0.04391164     0.02700
C902        C  0.30180159  0.55815281  0.52653380    -0.13500
C903        C  0.31688766  0.57125793  0.49314921     0.00200
C904        C  0.34182211  0.55840652  0.47785764    -0.12000
C905        C  0.35214293  0.53264379  0.49568611     0.02700
C906        C  0.33654181  0.01888670  0.02834466    -0.11400
H907        H  0.28257443  0.56827842  0.03870632     0.08300
H908        H  0.35386267  0.56914654  0.45275885     0.05800
H909        H  0.34465535  0.99928410  0.04304629     0.05600
Zr910      Zr  0.28103522  0.52336417  0.18961125     2.17500
O911        O  0.32147794  0.55501948  0.17412918    -0.51800
O912        O  0.32211776  0.49824642  0.22138625    -0.75000
O913        O  0.28433895  0.56355521  0.24014198    -0.81800
O914        O  0.27784471  0.99850208  0.07091435    -0.83500
O915        O  0.25481831  0.55335420  0.29593685    -0.79100
O916        O  0.29853812  0.53062967  0.11668885    -0.90800
O917        O  0.30858363  0.95220897  0.23681933    -0.76700
O918        O  0.26450211  0.49729450  0.25050550    -0.86200
O919        O  0.27546271  0.97430667  0.16680200    -0.85900
O920        O  0.23625271  0.54609838  0.20825862    -0.72700
O921        O  0.24651023  0.52406869  0.13275926    -0.84800
Zr922      Zr  0.17896721  0.97000257  0.19244354     2.26400
Zr923      Zr  0.21986961  0.51912359  0.26921456     2.06300
Zr924      Zr  0.24022479  0.97488253  0.11131012     2.10000
Zr925      Zr  0.25806121  0.94857972  0.22747617     1.78800
O926        O  0.22465660  0.98587825  0.03867778    -0.93600
O927        O  0.26684537  0.94011676  0.30343206    -0.41400
O928        O  0.22328433  0.94778961  0.17157665    -0.78100
O929        O  0.21403551  0.96943704  0.24894837    -0.96700
O930        O  0.18443700  0.51928108  0.21381669    -0.90000
O931        O  0.19523933  0.99564785  0.13072169    -0.92900
C932        C  0.32719365  0.97233152  0.23433337     1.00900
C933        C  0.29532268  0.51905240  0.07956352     1.13800
C934        C  0.27379739  0.56883613  0.27726498     1.04600
O935        O  0.23304627  0.50667106  0.34231928    -0.95000
O936        O  0.17984024  0.49941613  0.30901099    -0.90800
O937        O  0.15856484  0.96669305  0.26467085    -0.83900
C938        C  0.16170191  0.97930944  0.30115831     1.11200
O939        O  0.21902817  0.59035574  0.12421672    -0.97000
Zr940      Zr  0.20159975  0.54447069  0.15243622     1.88900
O941        O  0.13743686  0.99416339  0.16045810    -0.73700
O942        O  0.19275249  0.56169563  0.29083935    -0.52900
O943        O  0.18308004  0.58609994  0.19156910    -0.97600
O944        O  0.19500294  0.55170925  0.07564868    -0.54800
O945        O  0.15085261  0.54024017  0.14497784    -0.74200
C946        C  0.13222167  0.52014260  0.14790272     0.98200
O947        O  0.14037985  0.93607045  0.20795505    -0.63000
O948        O  0.27045086  0.93458597  0.08945511    -0.57800
O949        O  0.17858413  0.92811420  0.14429279    -0.94500
O950        O  0.20647814  0.93894535  0.08692004    -0.92900
O951        O  0.27667802  0.90577850  0.19150051    -0.93300
O952        O  0.23586827  0.90434148  0.25352924    -0.92100
C953        C  0.18813418  0.92318337  0.10640476     1.17000
H954        H  0.29322174  0.96637900  0.15634861     0.32900
H955        H  0.20838830  0.95772121  0.27307370     0.43800
H956        H  0.18189101  0.99396386  0.10729454     0.37300
H957        H  0.23775216  0.56649493  0.21471149     0.33800
H958        H  0.28136408  0.92454570  0.30424949     0.25600
H959        H  0.19664878  0.56370767  0.32189022     0.31500
H960        H  0.16529742  0.59153463  0.17647314     0.37400
H961        H  0.28990103  0.89698257  0.21254178     0.31900
H962        H  0.26036451  0.91704585  0.09965525     0.30800
H963        H  0.23482669  0.97176209  0.02032599     0.32500
H964        H  0.17835713  0.53967353  0.06770536     0.31400
H965        H  0.21921781  0.90138722  0.23450757     0.35400
H966        H  0.12937170  0.93419746  0.18095549     0.28200
H967        H  0.33277804  0.55591222  0.20091211     0.32400
H968        H  0.20187441  0.60065862  0.11367999     0.35200
H969        H  0.26862289  0.93388411  0.05787810     0.27900
H970        H  0.14957396  0.91700019  0.21212727     0.40700
H971        H  0.23242154  0.48524176  0.34317743     0.30800
H972        H  0.27710026  0.95759546  0.31346610     0.38400
H973        H  0.21151215  0.54190280  0.06220513     0.30200
H974        H  0.20280268  0.57827187  0.27755226     0.30300
H975        H  0.31336193  0.57468893  0.17072111     0.30600
C976        C  0.28129795  0.59610866  0.29787672     0.79800
N977        N  0.28588226  0.59703430  0.34072338    -0.78500
C978        C  0.28816611  0.62287064  0.36129501     0.82200
N979        N  0.28417086  0.64776942  0.33891738    -0.78500
C980        C  0.27934255  0.64699297  0.29608367     0.82300
N981        N  0.27808117  0.62113391  0.27558057    -0.80200
C982        C  0.30730811  0.59846399  0.47339987     0.02700
C983        C  0.31177459  0.62505116  0.49407407    -0.13500
C984        C  0.30830195  0.65107189  0.47139970     0.00200
C985        C  0.29980430  0.65034567  0.42834467    -0.12000
C986        C  0.29485633  0.62381193  0.40758109     0.02700
C987        C  0.29856557  0.59798008  0.43056468    -0.11400
H988        H  0.31992403  0.62543774  0.02656940     0.08300
H989        H  0.29809814  0.67052453  0.41078885     0.05800
H990        H  0.29598644  0.57723704  0.41476056     0.05600
C991        C  0.06142265  0.71443422  0.08636852     0.02700
C992        C  0.08654951  0.72742530  0.10202407    -0.13500
C993        C  0.10213636  0.71370951  0.13473550     0.00200
C994        C  0.09181906  0.68795869  0.15259970    -0.12000
C995        C  0.06694989  0.67503369  0.13720677     0.02700
C996        C  0.05191626  0.68806069  0.10370877    -0.11400
H997        H  0.09463979  0.74704238  0.08733623     0.08300
H998        H  0.10383456  0.67726565  0.17776910     0.05800
H999        H  0.03274592  0.67787134  0.09145222     0.05600
C1000       C  0.39581398  0.77887255  0.29273406     0.02700
C1001       C  0.40553084  0.80494980  0.27462493    -0.13500
C1002       C  0.39085135  0.81761476  0.24044371     0.00200
C1003       C  0.36606535  0.80448053  0.22499549    -0.12000
C1004       C  0.35562193  0.77886997  0.24340319     0.02700
C1005       C  0.37096116  0.76556733  0.27678642    -0.11400
H1006       H  0.42452638  0.81535911  0.28711282     0.08300
H1007       H  0.35408046  0.81501866  0.19966503     0.05800
H1008       H  0.36276020  0.74615203  0.29190704     0.05600
Zr1009     Zr  0.03100186  0.72282851  0.44073563     2.17500
O1010       O  0.07142570  0.69113827  0.45618080    -0.51800
O1011       O  0.07211093  0.74790731  0.40903220    -0.75000
O1012       O  0.03429623  0.68268865  0.39014294    -0.81800
O1013       O  0.02789836  0.74771156  0.05936333    -0.83500
O1014       O  0.00476859  0.69288095  0.33435345    -0.79100
O1015       O  0.04857254  0.71556160  0.01360542    -0.90800
O1016       O  0.05856580  0.79392290  0.39347368    -0.76700
O1017       O  0.01447731  0.74890129  0.37984282    -0.86200
O1018       O  0.02546588  0.77189601  0.46350702    -0.85900
O1019       O  0.48621805  0.70010611  0.42207978    -0.72700
O1020       O  0.49649332  0.72213060  0.99761317    -0.84800
Zr1021     Zr  0.42897150  0.77625941  0.43794207     2.26400
Zr1022     Zr  0.46983288  0.72710447  0.36113745     2.06300
Zr1023     Zr  0.49025291  0.77133634  0.01902415     2.10000
Zr1024     Zr  0.00805377  0.79761975  0.40283833     1.78800
O1025       O  0.47466428  0.76047564  0.09169405    -0.93600
O1026       O  0.01678788  0.80598338  0.32685095    -0.41400
O1027       O  0.47330693  0.79844099  0.45877259    -0.78100
O1028       O  0.46401376  0.77679410  0.38139882    -0.96700
O1029       O  0.43441464  0.72698251  0.41655107    -0.90000
O1030       O  0.44525227  0.75059248  0.49963905    -0.92900
C1031       C  0.07717995  0.77380830  0.39603378     1.00900
C1032       C  0.04537759  0.72716185  0.05071620     1.13800
C1033       C  0.02375966  0.67741148  0.35302100     1.04600
O1034       O  0.48301953  0.73953107  0.28802427    -0.95000
O1035       O  0.42977755  0.74682481  0.32141127    -0.90800
O1036       O  0.40853417  0.77958304  0.36573512    -0.83900
C1037       C  0.41165256  0.76694604  0.32925712     1.11200
O1038       O  0.46885928  0.65589882  0.00636261    -0.97000
Zr1039     Zr  0.45156595  0.70176584  0.47790335     1.88900
O1040       O  0.38746080  0.75214472  0.47006462    -0.73700
O1041       O  0.44267640  0.68455224  0.33955906    -0.52900
O1042       O  0.43316765  0.66008889  0.43874025    -0.97600
O1043       O  0.44477643  0.69458639  0.05466934    -0.54800
O1044       O  0.40079820  0.70596897  0.48500696    -0.74200
C1045       C  0.38220196  0.72611274  0.48233511     0.98200
O1046       O  0.39037836  0.81021226  0.42254934    -0.63000
O1047       O  0.02049363  0.81165407  0.04076461    -0.57800
O1048       O  0.42868449  0.81816982  0.48603716    -0.94500
O1049       O  0.45653258  0.80728059  0.04343134    -0.92900
O1050       O  0.02664167  0.84045593  0.43875583    -0.93300
O1051       O  0.98592380  0.84185396  0.37665409    -0.92100
C1052       C  0.43822435  0.82307547  0.02393437     1.17000
H1053       H  0.04323027  0.77981738  0.47394528     0.32900
H1054       H  0.45836533  0.78851153  0.35727426     0.43800
H1055       H  0.43191208  0.75228262  0.02307689     0.37300
H1056       H  0.48771578  0.67971090  0.41562036     0.33800
H1057       H  0.03147801  0.82138491  0.32597198     0.25600
H1058       H  0.44656581  0.68252731  0.30850837     0.31500
H1059       H  0.41504654  0.65500529  0.45318250     0.37400
H1060       H  0.03986611  0.84924094  0.41770655     0.31900
H1061       H  0.01038807  0.82918873  0.03058476     0.30800
H1062       H  0.48522704  0.77427251  0.11007577     0.32500
H1063       H  0.42808838  0.70659896  0.06249360     0.31400
H1064       H  0.46917846  0.84476048  0.39550475     0.35400
H1065       H  0.37942317  0.81211605  0.44959392     0.28200
H1066       H  0.08266971  0.69015626  0.42935012     0.32400
H1067       H  0.45163903  0.64556358  0.01658439     0.35200
H1068       H  0.01870860  0.81236592  0.07234644     0.27900
H1069       H  0.39957755  0.82927215  0.41830262     0.40700
H1070       H  0.98229871  0.76095590  0.28710542     0.30800
H1071       H  0.02682870  0.78838757  0.31677670     0.38400
H1072       H  0.46123283  0.70443228  0.06819307     0.30200
H1073       H  0.45271814  0.66797323  0.35285287     0.30300
H1074       H  0.06327991  0.67149331  0.45973421     0.30600
C1075       C  0.03129769  0.65015114  0.33242574     0.79800
N1076       N  0.02810293  0.62512612  0.35472766    -0.78500
C1077       C  0.02944427  0.59926379  0.33424928     0.82200
N1078       N  0.03433423  0.59848721  0.29143127    -0.78500
C1079       C  0.03830946  0.62339211  0.26905521     0.82300
N1080       N  0.03594314  0.64922797  0.28959981    -0.80200
C1081       C  0.05739136  0.64782442  0.15695362     0.02700
C1082       C  0.04867811  0.64829977  0.19980020    -0.13500
C1083       C  0.04500969  0.62246372  0.22278288     0.00200
C1084       C  0.04996308  0.59593897  0.20201400    -0.12000
C1085       C  0.05840177  0.59522263  0.15893761     0.02700
C1086       C  0.06184071  0.62124376  0.13625671    -0.11400
H1087       H  0.04608783  0.66904019  0.21560885     0.08300
H1088       H  0.04828589  0.57575782  0.21957070     0.05800
H1089       H  0.06995336  0.62086272  0.10374000     0.05600
C1090       C  0.06270956  0.52889925  0.08765228     0.02700
C1091       C  0.05300956  0.55494857  0.10584227    -0.13500
C1092       C  0.06773681  0.56758192  0.13999130     0.00200
C1093       C  0.09253271  0.55444295  0.15536967    -0.12000
C1094       C  0.10295355  0.52885921  0.13688499     0.02700
C1095       C  0.08759776  0.01559770  0.10348433    -0.11400
H1096       H  0.03399948  0.56537137  0.09342790     0.08300
H1097       H  0.10454571  0.56496127  0.18068953     0.05800
H1098       H  0.09579909  0.99621162  0.08828477     0.05600
C1099       C  0.39714534  0.96444725  0.29400689     0.02700
C1100       C  0.37192397  0.47734126  0.27854850    -0.13500
C1101       C  0.35636599  0.96364659  0.24580126     0.00200
C1102       C  0.36675537  0.93795909  0.22781300    -0.12000
C1103       C  0.39169767  0.92510284  0.24309035     0.02700
C1104       C  0.40676850  0.93817707  0.27649509    -0.11400
H1105       H  0.36376113  0.49687611  0.29338548     0.08300
H1106       H  0.35474112  0.92725644  0.20265437     0.05800
H1107       H  0.42601775  0.92806728  0.28862019     0.05600
Zr1108     Zr  0.42748458  0.97285559  0.43959909     2.17500
O1109       O  0.38722383  0.94097005  0.42403917    -0.51800
O1110       O  0.38634387  0.99804029  0.47109877    -0.75000
O1111       O  0.42411367  0.93279570  0.49030095    -0.81800
O1112       O  0.43061118  0.49771767  0.32105090    -0.83500
O1113       O  0.45372322  0.94293267  0.04601379    -0.79100
O1114       O  0.40996015  0.96551797  0.36675395    -0.90800
O1115       O  0.39993813  0.54402788  0.48675223    -0.76700
O1116       O  0.44403233  0.99893557  0.50046097    -0.86200
O1117       O  0.43305187  0.52189889  0.41674434    -0.85900
O1118       O  0.47226734  0.95014235  0.45829388    -0.72700
O1119       O  0.46202619  0.97210914  0.38276898    -0.84800
Zr1120     Zr  0.02955628  0.52623471  0.44246544     2.26400
Zr1121     Zr  0.48866948  0.97713402  0.01922459     2.06300
Zr1122     Zr  0.46831126  0.52128184  0.36128345     2.10000
Zr1123     Zr  0.45045590  0.54763853  0.47739283     1.78800
O1124       O  0.48353376  0.51004076  0.28856647    -0.93600
O1125       O  0.44155162  0.55599580  0.05333697    -0.41400
O1126       O  0.48523871  0.54840701  0.42152362    -0.78100
O1127       O  0.49447937  0.52681654  0.99895275    -0.96700
O1128       O  0.02410229  0.97696074  0.46384872    -0.90000
O1129       O  0.01330830  0.50056360  0.38073490    -0.92900
C1130       C  0.38130068  0.52393633  0.48416309     1.00900
C1131       C  0.41315604  0.97714971  0.32967111     1.13800
C1132       C  0.43469181  0.92749543  0.02738547     1.04600
O1133       O  0.47557602  0.98947583  0.09239283    -0.95000
O1134       O  0.02869589  0.99690118  0.05898291    -0.90800
O1135       O  0.04995436  0.52965393  0.01467404    -0.83900
C1136       C  0.04683334  0.51701277  0.05114428     1.11200
O1137       O  0.48960827  0.90578752  0.37443856    -0.97000
Zr1138     Zr  0.00694214  0.95174798  0.40249120     1.88900
O1139       O  0.07110402  0.50205796  0.41050197    -0.73700
O1140       O  0.01588771  0.93460725  0.04074723    -0.52900
O1141       O  0.02551274  0.91021806  0.44179612    -0.97600
O1142       O  0.01350936  0.94438900  0.32571971    -0.54800
O1143       O  0.05767274  0.95600510  0.39488934    -0.74200
C1144       C  0.07631272  0.97608790  0.39788012     0.98200
O1145       O  0.06811162  0.56018617  0.45804656    -0.63000
O1146       O  0.43816053  0.56155456  0.33912119    -0.57800
O1147       O  0.02978219  0.56816932  0.39443401    -0.94500
O1148       O  0.00221250  0.55706495  0.33683235    -0.92900
O1149       O  0.43206604  0.59038261  0.44102299    -0.93300
O1150       O  0.47247119  0.59195525  0.00349103    -0.92100
C1151       C  0.02038221  0.57297285  0.35642979     1.17000
H1152       H  0.41530029  0.52982957  0.40627003     0.32900
H1153       H  0.50010863  0.53854119  0.02307852     0.43800
H1154       H  0.02665801  0.50224160  0.35730938     0.37300
H1155       H  0.47073929  0.92975298  0.46477853     0.33800
H1156       H  0.42726151  0.57178299  0.05415819     0.25600
H1157       H  0.01231286  0.93279368  0.07191199     0.31500
H1158       H  0.04333500  0.90481160  0.42678128     0.37400
H1159       H  0.41893406  0.59936679  0.46201714     0.31900
H1160       H  0.44778896  0.57903083  0.35048820     0.30800
H1161       H  0.47330975  0.52412067  0.27022056     0.32500
H1162       H  0.03007123  0.95651704  0.31768270     0.31400
H1163       H  0.48976573  0.59433899  0.98562399     0.35400
H1164       H  0.07915151  0.56203340  0.43107266     0.28200
H1165       H  0.37580624  0.94015051  0.45071652     0.32400
H1166       H  0.00681424  0.89542362  0.36423039     0.35200
H1167       H  0.44077188  0.56278745  0.30770448     0.27900
H1168       H  0.05890774  0.57925905  0.96214553     0.40700
H1169       H  0.47535604  0.01091677  0.09294140     0.29200
H1170       H  0.43100451  0.53864463  0.06317431     0.38400
H1171       H  0.99692771  0.95406011  0.31226396     0.30200
H1172       H  0.00565110  0.91798427  0.02791853     0.30300
H1173       H  0.39541969  0.92131544  0.42088429     0.30600
C1174       C  0.40023637  0.84526033  0.22149211     0.02700
C1175       C  0.40868844  0.84596997  0.17841176    -0.13500
C1176       C  0.41365540  0.87249426  0.15762727     0.00200
C1177       C  0.41000687  0.89833584  0.18058654    -0.12000
C1178       C  0.40126779  0.89787882  0.22340645     0.02700
C1179       C  0.39680289  0.87130297  0.24413600    -0.11400
H1180       H  0.41034935  0.82578832  0.16085517     0.08300
H1181       H  0.41261346  0.91907227  0.16476899     0.05800
H1182       H  0.38867550  0.87094525  0.27664389     0.05600
C1183       C  0.42717875  0.90022548  0.04796312     0.79800
N1184       N  0.42258979  0.89928293  0.09079869    -0.78500
C1185       C  0.42030937  0.87343923  0.11134589     0.82200
N1186       N  0.42430741  0.84854911  0.08895665    -0.78500
C1187       C  0.42913735  0.84934476  0.04612534     0.82300
N1188       N  0.43040601  0.87521166  0.52564726    -0.80200
C1189       C  0.14707530  0.78177912  0.83629610     0.02700
C1190       C  0.15664194  0.80808897  0.85375141    -0.13500
C1191       C  0.14159696  0.82111446  0.88722718     0.00200
C1192       C  0.11670345  0.80819963  0.90256856    -0.12000
C1193       C  0.10634847  0.78249614  0.88459464     0.02700
C1194       C  0.12191171  0.76881766  0.85184001    -0.11400
H1195       H  0.17584595  0.81825044  0.84155982     0.08300
H1196       H  0.10468910  0.81887567  0.92775375     0.05800
H1197       H  0.11378488  0.74925210  0.83704736     0.05600
C1198       C  0.31275224  0.71736773  0.54274514     0.02700
C1199       C  0.33763068  0.73065862  0.52686100    -0.13500
C1200       C  0.35293508  0.71740648  0.99339717     0.00200
C1201       C  0.34246792  0.69184020  0.97490360    -0.12000
C1202       C  0.31767352  0.67871481  0.99032498     0.02700
C1203       C  0.30300223  0.69134341  0.02453541    -0.11400
H1204       H  0.34586382  0.75003054  0.54206154     0.08300
H1205       H  0.35444374  0.68132314  0.94954270     0.05800
H1206       H  0.28399334  0.68093615  0.53698264     0.05600
Zr1207     Zr  0.17751499  0.77344602  0.69073866     2.17500
O1208       O  0.13725003  0.80534796  0.70621172    -0.51800
O1209       O  0.13635807  0.74830933  0.65924639    -0.75000
O1210       O  0.17418072  0.81350633  0.64006831    -0.81800
O1211       O  0.18058502  0.74854772  0.80927281    -0.83500
O1212       O  0.20369130  0.80328739  0.58427211    -0.79100
O1213       O  0.15990094  0.78071153  0.76355092    -0.90800
O1214       O  0.14993222  0.70230867  0.64363483    -0.76700
O1215       O  0.19404438  0.74735620  0.62986850    -0.86200
O1216       O  0.18305421  0.72440159  0.71356839    -0.85900
O1217       O  0.22230546  0.79615032  0.67202529    -0.72700
O1218       O  0.21204665  0.77419290  0.74758125    -0.84800
Zr1219     Zr  0.27955561  0.72002758  0.68791258     2.26400
Zr1220     Zr  0.23868805  0.76913792  0.61109525     2.06300
Zr1221     Zr  0.21829537  0.72500395  0.76903707     2.10000
Zr1222     Zr  0.20045982  0.69865375  0.65292905     1.78800
O1223       O  0.23347005  0.73612164  0.84181590    -0.93600
O1224       O  0.19160014  0.69028286  0.57698440    -0.41400
O1225       O  0.23522716  0.69787156  0.70881302    -0.78100
O1226       O  0.24449801  0.71946150  0.63139584    -0.96700
O1227       O  0.27411426  0.76929614  0.66648304    -0.90000
O1228       O  0.26329860  0.74571740  0.74961522    -0.92900
C1229       C  0.13130094  0.72240946  0.64622319     1.00900
C1230       C  0.16310255  0.76908843  0.80063767     1.13800
C1231       C  0.18470567  0.81876332  0.60294145     1.04600
O1232       O  0.22557474  0.75673219  0.53795837    -0.95000
O1233       O  0.27875552  0.74937390  0.57141924    -0.90800
O1234       O  0.30001064  0.71662389  0.61573792    -0.83900
C1235       C  0.29689544  0.72926611  0.57926690     1.11200
O1236       O  0.23961318  0.84039395  0.75618774    -0.97000
Zr1237     Zr  0.25697779  0.79453130  0.72782724     1.88900
O1238       O  0.32107617  0.74411930  0.72009630    -0.73700
O1239       O  0.26588106  0.81163247  0.58936610    -0.52900
O1240       O  0.27537723  0.83613565  0.68850209    -0.97600
O1241       O  0.26381182  0.80182667  0.80456481    -0.54800
O1242       O  0.30774994  0.79030790  0.73499065    -0.74200
C1243       C  0.32634563  0.77015822  0.73234203     0.98200
O1244       O  0.31811408  0.68606210  0.67241599    -0.63000
O1245       O  0.18815572  0.68464210  0.79088948    -0.57800
O1246       O  0.27967134  0.67804798  0.73585345    -0.94500
O1247       O  0.25220627  0.68925178  0.79352050    -0.92900
O1248       O  0.18205071  0.65591286  0.68928502    -0.93300
O1249       O  0.22247820  0.65436281  0.62673073    -0.92100
C1250       C  0.27030878  0.67328577  0.77388941     1.17000
H1251       H  0.16529793  0.71648095  0.72403752     0.32900
H1252       H  0.25014213  0.70773749  0.60727864     0.43800
H1253       H  0.27663836  0.74403481  0.77305004     0.37300
H1254       H  0.22079205  0.81653913  0.66552944     0.33800
H1255       H  0.17704102  0.67475232  0.57616359     0.25600
H1256       H  0.26230031  0.81337688  0.55819398     0.31500
H1257       H  0.29341483  0.84134003  0.70308482     0.37400
H1258       H  0.16907012  0.64683538  0.66816829     0.31900
H1259       H  0.19807627  0.66715979  0.78012417     0.30800
H1260       H  0.22318651  0.72205148  0.86010360     0.32500
H1261       H  0.28037609  0.78966344  0.81246953     0.31400
H1262       H  0.23990177  0.65209421  0.64434434     0.35400
H1263       H  0.32906929  0.68412982  0.69945315     0.28200
H1264       H  0.12595645  0.80633715  0.67942949     0.32400
H1265       H  0.25684983  0.85086463  0.76603259     0.35200
H1266       H  0.19032387  0.68366519  0.82240176     0.27900
H1267       H  0.30889338  0.66701390  0.66815323     0.40700
H1268       H  0.22533436  0.73529177  0.53745722     0.30800
H1269       H  0.18137611  0.70779745  0.56701581     0.38400
H1270       H  0.24725483  0.79217910  0.81812953     0.30200
H1271       H  0.25563699  0.82827648  0.60212249     0.30300
H1272       H  0.14548072  0.82496410  0.70967617     0.30600
C1273       C  0.15114775  0.84833841  0.90693695     0.02700
C1274       C  0.15982732  0.84788387  0.94978838    -0.13500
C1275       C  0.16347232  0.87372858  0.47274567     0.00200
C1276       C  0.15852862  0.90024763  0.95194495    -0.12000
C1277       C  0.15014300  0.90095512  0.90883787     0.02700
C1278       C  0.14673754  0.87491396  0.88618173    -0.11400
H1279       H  0.16240834  0.82714885  0.96561969     0.08300
H1280       H  0.16017546  0.92043090  0.96949987     0.05800
H1281       H  0.13866534  0.87527429  0.85364358     0.05600
C1282       C  0.17716798  0.84602340  0.58236747     0.79800
N1283       N  0.17251238  0.84695832  0.53955092    -0.78500
C1284       C  0.17015198  0.87279928  0.51902042     0.82200
N1285       N  0.17414012  0.89769797  0.54140421    -0.78500
C1286       C  0.17902939  0.89690851  0.58422358     0.82300
N1287       N  0.18037289  0.87104016  0.60468350    -0.80200
C1288       C  0.14584488  0.96738269  0.83766085     0.02700
C1289       C  0.12096296  0.48067260  0.85352896    -0.13500
C1290       C  0.10558173  0.96735784  0.88685339     0.00200
C1291       C  0.11597966  0.94172653  0.90524371    -0.12000
C1292       C  0.14079002  0.92860264  0.88986915     0.02700
C1293       C  0.15553592  0.94129545  0.85577290    -0.11400
H1294       H  0.11277923  0.50009179  0.83839865     0.08300
H1295       H  0.10394881  0.93117352  0.93051318     0.05800
H1296       H  0.17455327  0.93089492  0.84334259     0.05600
C1297       C  0.31135455  0.53180501  0.54391167     0.02700
C1298       C  0.30180154  0.55815293  0.02653376    -0.13500
C1299       C  0.31688765  0.57125800  0.99314918     0.00200
C1300       C  0.34182210  0.55840659  0.97785764    -0.12000
C1301       C  0.35214287  0.53264382  0.99568608     0.02700
C1302       C  0.33654185  0.01888674  0.52834475    -0.11400
H1303       H  0.28257443  0.56827819  0.53870637     0.08300
H1304       H  0.35386273  0.56914664  0.95275893     0.05800
H1305       H  0.34465538  0.99928415  0.54304643     0.05600
Zr1306     Zr  0.28103521  0.52336418  0.68961122     2.17500
O1307       O  0.32147793  0.55501953  0.67412931    -0.51800
O1308       O  0.32211774  0.49824646  0.72138639    -0.75000
O1309       O  0.28433888  0.56355527  0.74014194    -0.81800
O1310       O  0.27784468  0.99850208  0.57091424    -0.83500
O1311       O  0.25481831  0.55335422  0.79593687    -0.79100
O1312       O  0.29853808  0.53062961  0.61668879    -0.90800
O1313       O  0.30858362  0.95220903  0.73681949    -0.76700
O1314       O  0.26450208  0.49729455  0.75050546    -0.86200
O1315       O  0.27546272  0.97430670  0.66680202    -0.85900
O1316       O  0.23625266  0.54609839  0.70825858    -0.72700
O1317       O  0.24651025  0.52406870  0.63275915    -0.84800
Zr1318     Zr  0.17896721  0.97000260  0.69244355     2.26400
Zr1319     Zr  0.21986960  0.51912362  0.76921461     2.06300
Zr1320     Zr  0.24022483  0.97488251  0.61131012     2.10000
Zr1321     Zr  0.25806123  0.94857977  0.72747625     1.78800
O1322       O  0.22465678  0.98587829  0.53867773    -0.93600
O1323       O  0.26684535  0.94011693  0.80343220    -0.41400
O1324       O  0.22328435  0.94778967  0.67157675    -0.78100
O1325       O  0.21403550  0.96943710  0.74894836    -0.96700
O1326       O  0.18443701  0.51928106  0.71381671    -0.90000
O1327       O  0.19523936  0.99564781  0.63072163    -0.92900
C1328       C  0.32719364  0.97233156  0.73433340     1.00900
C1329       C  0.29532275  0.51905229  0.57956347     1.13800
C1330       C  0.27379737  0.56883616  0.77726499     1.04600
O1331       O  0.23304624  0.50667111  0.84231939    -0.95000
O1332       O  0.17984019  0.49941618  0.80901093    -0.90800
O1333       O  0.15856482  0.96669306  0.76467081    -0.83900
C1334       C  0.16170187  0.97930948  0.80115824     1.11200
O1335       O  0.21902827  0.59035559  0.62421652    -0.97000
Zr1336     Zr  0.20159974  0.54447062  0.65243613     1.88900
O1337       O  0.13743687  0.99416344  0.66045803    -0.73700
O1338       O  0.19275244  0.56169566  0.79083910    -0.52900
O1339       O  0.18308007  0.58609991  0.69156891    -0.97600
O1340       O  0.19500294  0.55170911  0.57564854    -0.54800
O1341       O  0.15085262  0.54024011  0.64497769    -0.74200
C1342       C  0.13222165  0.52014258  0.64790276     0.98200
O1343       O  0.14037981  0.93607049  0.70795510    -0.63000
O1344       O  0.27045084  0.93458592  0.58945522    -0.57800
O1345       O  0.17858414  0.92811423  0.64429276    -0.94500
O1346       O  0.20647810  0.93894542  0.58691996    -0.92900
O1347       O  0.27667798  0.90577855  0.69150060    -0.93300
O1348       O  0.23586843  0.90434150  0.75352939    -0.92100
C1349       C  0.18813416  0.92318342  0.60640469     1.17000
H1350       H  0.29322174  0.96637904  0.65634857     0.32900
H1351       H  0.20838827  0.95772125  0.77307362     0.43800
H1352       H  0.18189139  0.99396377  0.60729492     0.37300
H1353       H  0.23775209  0.56649479  0.71471128     0.33800
H1354       H  0.28136375  0.92454610  0.80424974     0.25600
H1355       H  0.19664886  0.56370786  0.82189037     0.31500
H1356       H  0.16529728  0.59153474  0.67647267     0.37400
H1357       H  0.28990118  0.89698257  0.71254203     0.31900
H1358       H  0.26036430  0.91704543  0.59965580     0.30800
H1359       H  0.23482697  0.97176198  0.52032581     0.32500
H1360       H  0.17835693  0.53967334  0.56770514     0.31400
H1361       H  0.21921777  0.90138740  0.73450811     0.35400
H1362       H  0.12937187  0.93419745  0.68095595     0.28200
H1363       H  0.33277800  0.55591226  0.70091227     0.32400
H1364       H  0.20187489  0.60065836  0.61368008     0.35200
H1365       H  0.26862277  0.93388387  0.55787856     0.27900
H1366       H  0.14957403  0.91700015  0.71212760     0.40700
H1367       H  0.23242151  0.48524181  0.84317758     0.30800
H1368       H  0.27710048  0.95759596  0.81346631     0.38400
H1369       H  0.21151202  0.54190261  0.56220499     0.30200
H1370       H  0.20280261  0.57827186  0.77755194     0.30300
H1371       H  0.31336191  0.57468897  0.67072123     0.30600
C1372       C  0.28129794  0.59610865  0.79787679     0.79800
N1373       N  0.28588223  0.59703429  0.84072345    -0.78500
C1374       C  0.28816608  0.62287062  0.86129509     0.82200
N1375       N  0.28417083  0.64776942  0.83891743    -0.78500
C1376       C  0.27934255  0.64699297  0.79608373     0.82300
N1377       N  0.27808116  0.62113392  0.77558064    -0.80200
C1378       C  0.30730810  0.59846404  0.97339989     0.02700
C1379       C  0.31177456  0.62505121  0.99407411    -0.13500
C1380       C  0.30830193  0.65107193  0.97139974     0.00200
C1381       C  0.29980427  0.65034571  0.92834470    -0.12000
C1382       C  0.29485631  0.62381196  0.90758114     0.02700
C1383       C  0.29856554  0.59798011  0.93056474    -0.11400
H1384       H  0.31992406  0.62543768  0.52656935     0.08300
H1385       H  0.29809808  0.67052455  0.91078883     0.05800
H1386       H  0.29598639  0.57723707  0.91476063     0.05600
C1387       C  0.06142262  0.71443430  0.58636864     0.02700
C1388       C  0.08654947  0.72742538  0.60202421    -0.13500
C1389       C  0.10213634  0.71370957  0.63473558     0.00200
C1390       C  0.09181908  0.68795872  0.65259973    -0.12000
C1391       C  0.06694995  0.67503370  0.63720679     0.02700
C1392       C  0.05191628  0.68806072  0.60370886    -0.11400
H1393       H  0.09463975  0.74704248  0.58733639     0.08300
H1394       H  0.10383459  0.67726569  0.67776909     0.05800
H1395       H  0.03274596  0.67787134  0.59145230     0.05600
C1396       C  0.39581404  0.77887252  0.79273397     0.02700
C1397       C  0.40553082  0.80494984  0.77462498    -0.13500
C1398       C  0.39085131  0.81761482  0.74044380     0.00200
C1399       C  0.36606534  0.80448057  0.72499552    -0.12000
C1400       C  0.35562198  0.77886992  0.74340305     0.02700
C1401       C  0.37096128  0.76556721  0.77678621    -0.11400
H1402       H  0.42452635  0.81535918  0.78711286     0.08300
H1403       H  0.35408041  0.81501872  0.69966511     0.05800
H1404       H  0.36276038  0.74615183  0.79190670     0.05600
Zr1405     Zr  0.03100191  0.72282855  0.94073561     2.17500
O1406       O  0.07142576  0.69113828  0.95618084    -0.51800
O1407       O  0.07211096  0.74790736  0.90903224    -0.75000
O1408       O  0.03429624  0.68268866  0.89014296    -0.81800
O1409       O  0.02789853  0.74771179  0.55936317    -0.83500
O1410       O  0.00476875  0.69288108  0.83435335    -0.79100
O1411       O  0.04857243  0.71556148  0.51360550    -0.90800
O1412       O  0.05856579  0.79392294  0.89347375    -0.76700
O1413       O  0.01447743  0.74890134  0.87984277    -0.86200
O1414       O  0.02546587  0.77189602  0.96350715    -0.85900
O1415       O  0.48621808  0.70010614  0.92207976    -0.72700
O1416       O  0.49649333  0.72213059  0.49761328    -0.84800
Zr1417     Zr  0.42897147  0.77625934  0.93794215     2.26400
Zr1418     Zr  0.46983294  0.72710452  0.86113746     2.06300
Zr1419     Zr  0.49025293  0.77133639  0.51902408     2.10000
Zr1420     Zr  0.00805380  0.79761978  0.90283847     1.78800
O1421       O  0.47466444  0.76047586  0.59169411    -0.93600
O1422       O  0.01678799  0.80598365  0.82685117    -0.41400
O1423       O  0.47330692  0.79844088  0.95877262    -0.78100
O1424       O  0.46401376  0.77679417  0.88139888    -0.96700
O1425       O  0.43441463  0.72698248  0.91655105    -0.90000
O1426       O  0.44525229  0.75059238  0.99963907    -0.92900
C1427       C  0.07717996  0.77380835  0.89603378     1.00900
C1428       C  0.04537760  0.72716190  0.55071621     1.13800
C1429       C  0.02375974  0.67741155  0.85302093     1.04600
O1430       O  0.48301948  0.73953110  0.78802420    -0.95000
O1431       O  0.42977770  0.74682489  0.82141113    -0.90800
O1432       O  0.40853422  0.77958302  0.86573505    -0.83900
C1433       C  0.41165265  0.76694605  0.82925702     1.11200
O1434       O  0.46885938  0.65589893  0.50636272    -0.97000
Zr1435     Zr  0.45156593  0.70176578  0.97790331     1.88900
O1436       O  0.38746079  0.75214470  0.97006475    -0.73700
O1437       O  0.44267654  0.68455226  0.83955896    -0.52900
O1438       O  0.43316765  0.66008891  0.93874002    -0.97600
O1439       O  0.44477637  0.69458647  0.55466937    -0.54800
O1440       O  0.40079817  0.70596892  0.98500687    -0.74200
C1441       C  0.38220195  0.72611272  0.98233515     0.98200
O1442       O  0.39037834  0.81021219  0.92254937    -0.63000
O1443       O  0.02049377  0.81165419  0.54076441    -0.57800
O1444       O  0.42868450  0.81816977  0.98603712    -0.94500
O1445       O  0.45653269  0.80728069  0.54343128    -0.92900
O1446       O  0.02664182  0.84045588  0.93875620    -0.93300
O1447       O  0.98592377  0.84185405  0.87665453    -0.92100
C1448       C  0.43822439  0.82307554  0.52393438     1.17000
H1449       H  0.04323023  0.77981743  0.97394546     0.32900
H1450       H  0.45836550  0.78851128  0.85727509     0.43800
H1451       H  0.43191249  0.75228271  0.52307605     0.37300
H1452       H  0.48771578  0.67971095  0.91562021     0.33800
H1453       H  0.03147818  0.82138532  0.82597232     0.25600
H1454       H  0.44656586  0.68252749  0.80850795     0.31500
H1455       H  0.41504633  0.65500534  0.95318223     0.37400
H1456       H  0.03986643  0.84924079  0.91770721     0.31900
H1457       H  0.01038857  0.82918854  0.53058446     0.30800
H1458       H  0.48522746  0.77427281  0.61007592     0.32500
H1459       H  0.42808867  0.70659917  0.56249368     0.31400
H1460       H  0.46917873  0.84476045  0.89550492     0.35400
H1461       H  0.37942297  0.81211599  0.94959451     0.28200
H1462       H  0.08266957  0.69015636  0.92935082     0.32400
H1463       H  0.45163937  0.64556383  0.51658472     0.35200
H1464       H  0.01870861  0.81236613  0.57234641     0.27900
H1465       H  0.39957729  0.82927170  0.91830279     0.40700
H1466       H  0.98229912  0.76095597  0.78710550     0.30800
H1467       H  0.02682905  0.78838778  0.81677677     0.38400
H1468       H  0.46123311  0.70443215  0.56819325     0.30200
H1469       H  0.45271840  0.66797327  0.85285236     0.30300
H1470       H  0.06327984  0.67149316  0.95973422     0.30600
C1471       C  0.03129772  0.65015119  0.83242566     0.79800
N1472       N  0.02810294  0.62512619  0.85472762    -0.78500
C1473       C  0.02944425  0.59926384  0.83424926     0.82200
N1474       N  0.03433421  0.59848722  0.79143127    -0.78500
C1475       C  0.03830942  0.62339212  0.76905515     0.82300
N1476       N  0.03594312  0.64922799  0.78959973    -0.80200
C1477       C  0.05739148  0.64782439  0.65695363     0.02700
C1478       C  0.04867813  0.64829972  0.69980016    -0.13500
C1479       C  0.04500965  0.62246368  0.72278282     0.00200
C1480       C  0.04996304  0.59593895  0.70201396    -0.12000
C1481       C  0.05840180  0.59522263  0.65893761     0.02700
C1482       C  0.06184085  0.62124376  0.63625673    -0.11400
H1483       H  0.04608780  0.66904011  0.71560881     0.08300
H1484       H  0.04828580  0.57575780  0.71957063     0.05800
H1485       H  0.06995354  0.62086270  0.60374006     0.05600
C1486       C  0.06270949  0.52889923  0.58765239     0.02700
C1487       C  0.05300951  0.55494858  0.60584236    -0.13500
C1488       C  0.06773680  0.56758193  0.63999134     0.00200
C1489       C  0.09253271  0.55444297  0.65536971    -0.12000
C1490       C  0.10295352  0.52885920  0.63688506     0.02700
C1491       C  0.08759773  0.01559772  0.60348429    -0.11400
H1492       H  0.03399945  0.56537142  0.59342802     0.08300
H1493       H  0.10454573  0.56496129  0.68068955     0.05800
H1494       H  0.09579905  0.99621166  0.58828466     0.05600
C1495       C  0.39714530  0.96444726  0.79400698     0.02700
C1496       C  0.37192396  0.47734128  0.77854863    -0.13500
C1497       C  0.35636599  0.96364664  0.74580127     0.00200
C1498       C  0.36675534  0.93795912  0.72781303    -0.12000
C1499       C  0.39169761  0.92510285  0.74309045     0.02700
C1500       C  0.40676842  0.93817705  0.77649524    -0.11400
H1501       H  0.36376110  0.49687612  0.79338565     0.08300
H1502       H  0.35474109  0.92725647  0.70265438     0.05800
H1503       H  0.42601765  0.92806724  0.78862038     0.05600
Zr1504     Zr  0.42748458  0.97285563  0.93959910     2.17500
O1505       O  0.38722380  0.94097009  0.92403931    -0.51800
O1506       O  0.38634380  0.99804027  0.97109864    -0.75000
O1507       O  0.42411385  0.93279570  0.99030092    -0.81800
O1508       O  0.43061115  0.49771775  0.82105096    -0.83500
O1509       O  0.45372299  0.94293285  0.54601380    -0.79100
O1510       O  0.40996013  0.96551800  0.86675402    -0.90800
O1511       O  0.39993808  0.54402794  0.98675213    -0.76700
O1512       O  0.44403237  0.99893555  0.00046097    -0.86200
O1513       O  0.43305185  0.52189894  0.91674446    -0.85900
O1514       O  0.47226736  0.95014239  0.95829375    -0.72700
O1515       O  0.46202614  0.97210926  0.88276893    -0.84800
Zr1516     Zr  0.02955627  0.52623476  0.94246550     2.26400
Zr1517     Zr  0.48866942  0.97713405  0.51922462     2.06300
Zr1518     Zr  0.46831121  0.52128192  0.86128351     2.10000
Zr1519     Zr  0.45045590  0.54763854  0.97739300     1.78800
O1520       O  0.48353374  0.51004100  0.78856647    -0.93600
O1521       O  0.44155180  0.55599592  0.55333678    -0.41400
O1522       O  0.48523867  0.54840705  0.92152374    -0.78100
O1523       O  0.49447939  0.52681654  0.49895260    -0.96700
O1524       O  0.02410230  0.97696076  0.96384867    -0.90000
O1525       O  0.01330824  0.50056368  0.88073501    -0.92900
C1526       C  0.38130064  0.52393637  0.98416312     1.00900
C1527       C  0.41315603  0.97714974  0.82967117     1.13800
C1528       C  0.43469163  0.92749551  0.52738553     1.04600
O1529       O  0.47557578  0.98947603  0.59239272    -0.95000
O1530       O  0.02869577  0.99690111  0.55898300    -0.90800
O1531       O  0.04995428  0.52965379  0.51467409    -0.83900
C1532       C  0.04683326  0.51701270  0.55114438     1.11200
O1533       O  0.48960826  0.90578764  0.87443842    -0.97000
Zr1534     Zr  0.00694212  0.95174807  0.90249110     1.88900
O1535       O  0.07110402  0.50205798  0.91050212    -0.73700
O1536       O  0.01588752  0.93460728  0.54074760    -0.52900
O1537       O  0.02551271  0.91021810  0.94179594    -0.97600
O1538       O  0.01350938  0.94438927  0.82571951    -0.54800
O1539       O  0.05767272  0.95600516  0.89488921    -0.74200
C1540       C  0.07631270  0.97608795  0.89788009     0.98200
O1541       O  0.06811158  0.56018625  0.95804690    -0.63000
O1542       O  0.43816038  0.56155459  0.83912111    -0.57800
O1543       O  0.02978223  0.56816933  0.89443396    -0.94500
O1544       O  0.00221227  0.55706516  0.83683248    -0.92900
O1545       O  0.43206624  0.59038270  0.94102331    -0.93300
O1546       O  0.47247099  0.59195547  0.50349046    -0.92100
C1547       C  0.02038214  0.57297294  0.85642983     1.17000
H1548       H  0.41530027  0.52982962  0.90627017     0.32900
H1549       H  0.50010863  0.53854115  0.52307831     0.43800
H1550       H  0.02665830  0.50224174  0.85730895     0.37300
H1551       H  0.47073935  0.92975301  0.96477826     0.33800
H1552       H  0.42726188  0.57178279  0.55415803     0.25600
H1553       H  0.01231239  0.93279366  0.57191280     0.31500
H1554       H  0.04333497  0.90481164  0.92678110     0.37400
H1555       H  0.41893424  0.59936707  0.96201790     0.31900
H1556       H  0.44778858  0.57903068  0.85048795     0.30800
H1557       H  0.47330938  0.52412091  0.77022034     0.32500
H1558       H  0.03007106  0.95651713  0.81768266     0.31400
H1559       H  0.48976548  0.59433904  0.48562397     0.35400
H1560       H  0.07915134  0.56203355  0.93107336     0.28200
H1561       H  0.37580624  0.94015055  0.95071669     0.32400
H1562       H  0.00681411  0.89542391  0.86423001     0.35200
H1563       H  0.44077173  0.56278746  0.80770420     0.27900
H1564       H  0.05890786  0.57925906  0.46214496     0.40700
H1565       H  0.47535625  0.01091731  0.59294134     0.29200
H1566       H  0.43100458  0.53864440  0.56317437     0.38400
H1567       H  0.99692763  0.95406049  0.81226375     0.30200
H1568       H  0.00565102  0.91798438  0.52791889     0.30300
H1569       H  0.39541966  0.92131548  0.92088443     0.30600
C1570       C  0.40023638  0.84526036  0.72149221     0.02700
C1571       C  0.40868852  0.84596998  0.67841191    -0.13500
C1572       C  0.41365543  0.87249429  0.65762739     0.00200
C1573       C  0.41000684  0.89833588  0.68058665    -0.12000
C1574       C  0.40126777  0.89787886  0.72340654     0.02700
C1575       C  0.39680287  0.87130300  0.74413607    -0.11400
H1576       H  0.41034949  0.82578831  0.66085536     0.08300
H1577       H  0.41261339  0.91907233  0.66476911     0.05800
H1578       H  0.38867545  0.87094529  0.77664392     0.05600
C1579       C  0.42717870  0.90022554  0.54796324     0.79800
N1580       N  0.42258976  0.89928297  0.59079881    -0.78500
C1581       C  0.42030940  0.87343926  0.61134602     0.82200
N1582       N  0.42430750  0.84854914  0.58895676    -0.78500
C1583       C  0.42913740  0.84934481  0.54612544     0.82300
N1584       N  0.43040604  0.87521160  0.02564716    -0.80200
C1585       C  0.64707531  0.28177909  0.33629605     0.02700
C1586       C  0.65664191  0.30808899  0.35375130    -0.13500
C1587       C  0.64159699  0.32111444  0.38722713     0.00200
C1588       C  0.61670351  0.30819956  0.40256853    -0.12000
C1589       C  0.60634854  0.28249603  0.38459464     0.02700
C1590       C  0.62191181  0.26881753  0.35184007    -0.11400
H1591       H  0.67584587  0.31825049  0.34155961     0.08300
H1592       H  0.60468916  0.31887558  0.42775372     0.05800
H1593       H  0.61378505  0.24925189  0.33704748     0.05600
C1594       C  0.81275223  0.21736774  0.04274516     0.02700
C1595       C  0.83763065  0.23065865  0.02686099    -0.13500
C1596       C  0.85293510  0.21740652  0.49339710     0.00200
C1597       C  0.84246796  0.19184023  0.47490356    -0.12000
C1598       C  0.81767358  0.17871481  0.49032493     0.02700
C1599       C  0.80300223  0.19134346  0.52453526    -0.11400
H1600       H  0.84586378  0.25003058  0.04206155     0.08300
H1601       H  0.85444380  0.18132320  0.44954268     0.05800
H1602       H  0.78399330  0.18093617  0.03698263     0.05600
Zr1603     Zr  0.67751497  0.27344600  0.19073859     2.17500
O1604       O  0.63724992  0.30534786  0.20621177    -0.51800
O1605       O  0.63635808  0.24830931  0.15924625    -0.75000
O1606       O  0.67418063  0.31350627  0.14006822    -0.81800
O1607       O  0.68058507  0.24854770  0.30927283    -0.83500
O1608       O  0.70369147  0.30328748  0.08427226    -0.79100
O1609       O  0.65990097  0.28071146  0.26355088    -0.90800
O1610       O  0.64993223  0.20230864  0.14363468    -0.76700
O1611       O  0.69404439  0.24735619  0.12986841    -0.86200
O1612       O  0.68305422  0.22440157  0.21356823    -0.85900
O1613       O  0.72230547  0.29615030  0.17202537    -0.72700
O1614       O  0.71204664  0.27419280  0.24758116    -0.84800
Zr1615     Zr  0.77955565  0.22002757  0.18791264     2.26400
Zr1616     Zr  0.73868810  0.26913789  0.11109530     2.06300
Zr1617     Zr  0.71829535  0.22500386  0.26903696     2.10000
Zr1618     Zr  0.70045986  0.19865373  0.15292889     1.78800
O1619       O  0.73347007  0.23612142  0.34181576    -0.93600
O1620       O  0.69160018  0.19028301  0.07698424    -0.41400
O1621       O  0.73522718  0.19787152  0.20881289    -0.78100
O1622       O  0.74449806  0.21946150  0.13139589    -0.96700
O1623       O  0.77411429  0.26929613  0.16648312    -0.90000
O1624       O  0.76329857  0.24571735  0.24961529    -0.92900
C1625       C  0.63130095  0.22240943  0.14622305     1.00900
C1626       C  0.66310261  0.26908840  0.30063767     1.13800
C1627       C  0.68470573  0.31876334  0.10294148     1.04600
O1628       O  0.72557478  0.25673226  0.03795836    -0.95000
O1629       O  0.77875563  0.24937395  0.07141937    -0.90800
O1630       O  0.80001068  0.21662384  0.11573797    -0.83900
C1631       C  0.79689549  0.22926611  0.07926696     1.11200
O1632       O  0.73961316  0.34039395  0.25618760    -0.97000
Zr1633     Zr  0.75697778  0.29453123  0.22782736     1.88900
O1634       O  0.82107617  0.24411930  0.22009644    -0.73700
O1635       O  0.76588111  0.31163244  0.08936615    -0.52900
O1636       O  0.77537751  0.33613548  0.18850226    -0.97600
O1637       O  0.76381159  0.30182648  0.30456498    -0.54800
O1638       O  0.80774989  0.29030787  0.23499085    -0.74200
C1639       C  0.82634560  0.27015822  0.23234218     0.98200
O1640       O  0.81811404  0.18606205  0.17241577    -0.63000
O1641       O  0.68815555  0.18464205  0.29088916    -0.57800
O1642       O  0.77967153  0.17804802  0.23585354    -0.94500
O1643       O  0.75220627  0.18925172  0.29352043    -0.92900
O1644       O  0.68205070  0.15591282  0.18928481    -0.93300
O1645       O  0.72247837  0.15436284  0.12673059    -0.92100
C1646       C  0.77030885  0.17328576  0.27388941     1.17000
H1647       H  0.66529793  0.21648093  0.22403734     0.32900
H1648       H  0.75014235  0.20773719  0.10727790     0.43800
H1649       H  0.77663865  0.24403472  0.27305074     0.37300
H1650       H  0.72079204  0.31653896  0.16552964     0.33800
H1651       H  0.67704102  0.17475262  0.07616334     0.25600
H1652       H  0.76230036  0.31337692  0.05819473     0.31500
H1653       H  0.79341477  0.34133990  0.20308515     0.37400
H1654       H  0.66907031  0.14683541  0.16816824     0.31900
H1655       H  0.69807608  0.16715963  0.28012348     0.30800
H1656       H  0.72318603  0.22205156  0.36010361     0.32500
H1657       H  0.78037622  0.28966336  0.31246972     0.31400
H1658       H  0.73990174  0.15209392  0.14434495     0.35400
H1659       H  0.82906956  0.18412975  0.19945341     0.28200
H1660       H  0.62595642  0.30633710  0.17942985     0.32400
H1661       H  0.75684992  0.35086462  0.26603281     0.35200
H1662       H  0.69032370  0.18366503  0.32240080     0.27900
H1663       H  0.80889357  0.16701422  0.16815327     0.40700
H1664       H  0.72533440  0.23529150  0.03745709     0.30800
H1665       H  0.68137613  0.20779782  0.06701564     0.38400
H1666       H  0.74725485  0.29217859  0.31812954     0.30200
H1667       H  0.75563696  0.32827669  0.10212298     0.30300
H1668       H  0.64548069  0.32496426  0.20967635     0.30600
C1669       C  0.65114776  0.34833841  0.40693691     0.02700
C1670       C  0.65982732  0.34788387  0.44978834    -0.13500
C1671       C  0.66347229  0.37372858  0.97274567     0.00200
C1672       C  0.65852866  0.40024764  0.45194491    -0.12000
C1673       C  0.65014302  0.40095511  0.40883787     0.02700
C1674       C  0.64673753  0.37491395  0.38618171    -0.11400
H1675       H  0.66240831  0.32714885  0.46561965     0.08300
H1676       H  0.66017548  0.42043096  0.46949980     0.05800
H1677       H  0.63866531  0.37527428  0.35364356     0.05600
C1678       C  0.67716804  0.34602341  0.08236751     0.79800
N1679       N  0.67251243  0.34695833  0.03955096    -0.78500
C1680       C  0.67015199  0.37279928  0.01902044     0.82200
N1681       N  0.67414012  0.39769797  0.04140425    -0.78500
C1682       C  0.67902941  0.39690850  0.08422362     0.82300
N1683       N  0.68037291  0.37104016  0.10468355    -0.80200
C1684       C  0.64584485  0.46738269  0.33766093     0.02700
C1685       C  0.62096295  0.98067251  0.35352902    -0.13500
C1686       C  0.60558172  0.46735782  0.38685348     0.00200
C1687       C  0.61597968  0.44172652  0.40524385    -0.12000
C1688       C  0.64079002  0.42860263  0.38986923     0.02700
C1689       C  0.65553593  0.44129547  0.35577303    -0.11400
H1690       H  0.61277913  0.00009162  0.33839866     0.08300
H1691       H  0.60394884  0.43117350  0.43051333     0.05800
H1692       H  0.67455329  0.43089495  0.34334273     0.05600
C1693       C  0.81135455  0.03180514  0.04391170     0.02700
C1694       C  0.80180155  0.05815282  0.52653368    -0.13500
C1695       C  0.81688767  0.07125795  0.49314916     0.00200
C1696       C  0.84182213  0.05840654  0.47785762    -0.12000
C1697       C  0.85214294  0.03264380  0.49568610     0.02700
C1698       C  0.83654172  0.51888669  0.02834465    -0.11400
H1699       H  0.78257444  0.06827833  0.03870637     0.08300
H1700       H  0.85386271  0.06914656  0.45275886     0.05800
H1701       H  0.84465518  0.49928403  0.04304625     0.05600
Zr1702     Zr  0.78103523  0.02336417  0.18961124     2.17500
O1703       O  0.82147793  0.05501950  0.17412919    -0.51800
O1704       O  0.82211781  0.99824647  0.22138623    -0.75000
O1705       O  0.78433894  0.06355523  0.24014196    -0.81800
O1706       O  0.77784464  0.49850209  0.07091437    -0.83500
O1707       O  0.75481833  0.05335424  0.29593686    -0.79100
O1708       O  0.79853815  0.03062969  0.11668887    -0.90800
O1709       O  0.80858350  0.45220894  0.23681932    -0.76700
O1710       O  0.76450218  0.99729447  0.25050548    -0.86200
O1711       O  0.77546265  0.47430664  0.16680214    -0.85900
O1712       O  0.73625272  0.04609839  0.20825862    -0.72700
O1713       O  0.74651024  0.02406867  0.13275922    -0.84800
Zr1714     Zr  0.67896715  0.47000262  0.19244352     2.26400
Zr1715     Zr  0.71986968  0.01912358  0.26921458     2.06300
Zr1716     Zr  0.74022476  0.47488252  0.11131021     2.10000
Zr1717     Zr  0.75806106  0.44857974  0.22747632     1.78800
O1718       O  0.72465663  0.48587824  0.03867785    -0.93600
O1719       O  0.76684523  0.44011678  0.30343218    -0.41400
O1720       O  0.72328426  0.44778962  0.17157674    -0.78100
O1721       O  0.71403535  0.46943707  0.24894842    -0.96700
O1722       O  0.68443706  0.01928100  0.21381674    -0.90000
O1723       O  0.69523933  0.49564787  0.13072173    -0.92900
C1724       C  0.82719356  0.47233147  0.23433339     1.00900
C1725       C  0.79532278  0.01905240  0.07956354     1.13800
C1726       C  0.77379739  0.06883616  0.27726498     1.04600
O1727       O  0.73304628  0.00667107  0.34231933    -0.95000
O1728       O  0.67984029  0.99941611  0.30901097    -0.90800
O1729       O  0.65856480  0.46669308  0.26467086    -0.83900
C1730       C  0.66170186  0.47930946  0.30115832     1.11200
O1731       O  0.71902830  0.09035560  0.12421668    -0.97000
Zr1732     Zr  0.70159977  0.04447063  0.15243625     1.88900
O1733       O  0.63743686  0.49416341  0.16045785    -0.73700
O1734       O  0.69275251  0.06169562  0.29083933    -0.52900
O1735       O  0.68308009  0.08609990  0.19156909    -0.97600
O1736       O  0.69500296  0.05170924  0.07564870    -0.54800
O1737       O  0.65085267  0.04024009  0.14497780    -0.74200
C1738       C  0.63222171  0.02014257  0.14790284     0.98200
O1739       O  0.64037983  0.43607047  0.20795505    -0.63000
O1740       O  0.77045082  0.43458589  0.08945541    -0.57800
O1741       O  0.67858412  0.42811424  0.14429275    -0.94500
O1742       O  0.70647814  0.43894538  0.08692000    -0.92900
O1743       O  0.77667779  0.40577855  0.19150052    -0.93300
O1744       O  0.73586822  0.40434146  0.25352928    -0.92100
C1745       C  0.68813418  0.42318341  0.10640470     1.17000
H1746       H  0.79322104  0.46637919  0.15634906     0.32900
H1747       H  0.70838806  0.45772110  0.27307397     0.43800
H1748       H  0.68189099  0.49396376  0.10729447     0.37300
H1749       H  0.73775215  0.06649495  0.21471145     0.33800
H1750       H  0.78136379  0.42454582  0.30424950     0.25600
H1751       H  0.69664874  0.06370764  0.32189027     0.31500
H1752       H  0.66529730  0.09153474  0.17647285     0.37400
H1753       H  0.78990100  0.39698268  0.21254158     0.31900
H1754       H  0.76036434  0.41704554  0.09965585     0.30800
H1755       H  0.73482676  0.47176229  0.02032616     0.32500
H1756       H  0.67835702  0.03967359  0.06770535     0.31400
H1757       H  0.71921778  0.40138721  0.23450758     0.35400
H1758       H  0.62937169  0.43419748  0.18095549     0.28200
H1759       H  0.83277806  0.05591216  0.20091207     0.32400
H1760       H  0.70187491  0.10065838  0.11368028     0.35200
H1761       H  0.76862281  0.43388389  0.05787864     0.27900
H1762       H  0.64957396  0.41700023  0.21212726     0.40700
H1763       H  0.73242153  0.98524187  0.34317750     0.30800
H1764       H  0.77710006  0.45759544  0.31346611     0.38400
H1765       H  0.71151199  0.04190281  0.06220521     0.30200
H1766       H  0.70280269  0.07827189  0.27755234     0.30300
H1767       H  0.81336190  0.07468900  0.17072125     0.30600
C1768       C  0.78129795  0.09610867  0.29787672     0.79800
N1769       N  0.78588225  0.09703430  0.34072338    -0.78500
C1770       C  0.78816610  0.12287063  0.36129502     0.82200
N1771       N  0.78417086  0.14776942  0.33891738    -0.78500
C1772       C  0.77934257  0.14699297  0.29608367     0.82300
N1773       N  0.77808117  0.12113392  0.27558057    -0.80200
C1774       C  0.80730815  0.09846401  0.47339985     0.02700
C1775       C  0.81177472  0.12505118  0.49407402    -0.13500
C1776       C  0.80830201  0.15107190  0.47139970     0.00200
C1777       C  0.79980429  0.15034568  0.42834469    -0.12000
C1778       C  0.79485632  0.12381194  0.40758111     0.02700
C1779       C  0.79856556  0.09798010  0.43056470    -0.11400
H1780       H  0.81992424  0.12543773  0.02656933     0.08300
H1781       H  0.79809809  0.17052452  0.41078887     0.05800
H1782       H  0.79598641  0.07723706  0.41476060     0.05600
C1783       C  0.56142263  0.21443420  0.08636853     0.02700
C1784       C  0.58654948  0.22742530  0.10202407    -0.13500
C1785       C  0.60213634  0.21370952  0.13473549     0.00200
C1786       C  0.59181905  0.18795870  0.15259971    -0.12000
C1787       C  0.56694988  0.17503368  0.13720678     0.02700
C1788       C  0.55191625  0.18806068  0.10370879    -0.11400
H1789       H  0.59463975  0.24704239  0.08733621     0.08300
H1790       H  0.60383456  0.17726567  0.17776911     0.05800
H1791       H  0.53274591  0.17787133  0.09145224     0.05600
C1792       C  0.89581396  0.27887255  0.29273407     0.02700
C1793       C  0.90553082  0.30494980  0.27462491    -0.13500
C1794       C  0.89085134  0.31761475  0.24044369     0.00200
C1795       C  0.86606534  0.30448052  0.22499548    -0.12000
C1796       C  0.85562193  0.27886995  0.24340318     0.02700
C1797       C  0.87096115  0.26556732  0.27678644    -0.11400
H1798       H  0.92452636  0.31535911  0.28711275     0.08300
H1799       H  0.85408043  0.31501863  0.19966506     0.05800
H1800       H  0.86276019  0.24615203  0.29190709     0.05600
Zr1801     Zr  0.53100187  0.22282853  0.44073563     2.17500
O1802       O  0.57142577  0.19113832  0.45618069    -0.51800
O1803       O  0.57211093  0.24790732  0.40903220    -0.75000
O1804       O  0.53429622  0.18268868  0.39014294    -0.81800
O1805       O  0.52789838  0.24771154  0.05936326    -0.83500
O1806       O  0.50476860  0.19288097  0.33435345    -0.79100
O1807       O  0.54857249  0.21556147  0.01360543    -0.90800
O1808       O  0.55856583  0.29392291  0.39347367    -0.76700
O1809       O  0.51447739  0.24890131  0.37984278    -0.86200
O1810       O  0.52546588  0.27189603  0.46350701    -0.85900
O1811       O  0.98621807  0.20010614  0.42207975    -0.72700
O1812       O  0.99649336  0.22213056  0.99761315    -0.84800
Zr1813     Zr  0.92897150  0.27625943  0.43794207     2.26400
Zr1814     Zr  0.96983291  0.22710453  0.36113744     2.06300
Zr1815     Zr  0.99025294  0.27133629  0.01902415     2.10000
Zr1816     Zr  0.50805380  0.29761977  0.40283833     1.78800
O1817       O  0.97466427  0.26047566  0.09169406    -0.93600
O1818       O  0.51678799  0.30598345  0.32685102    -0.41400
O1819       O  0.97330694  0.29844103  0.45877257    -0.78100
O1820       O  0.96401377  0.27679415  0.38139883    -0.96700
O1821       O  0.93441466  0.22698253  0.41655108    -0.90000
O1822       O  0.94525230  0.25059250  0.49963905    -0.92900
C1823       C  0.57717998  0.27380830  0.39603375     1.00900
C1824       C  0.54537758  0.22716178  0.05071618     1.13800
C1825       C  0.52375966  0.17741150  0.35302099     1.04600
O1826       O  0.98301952  0.23953125  0.28802430    -0.95000
O1827       O  0.92977754  0.24682483  0.32141128    -0.90800
O1828       O  0.90853416  0.27958307  0.36573513    -0.83900
C1829       C  0.91165256  0.26694606  0.32925713     1.11200
O1830       O  0.96885942  0.15589880  0.00636232    -0.97000
Zr1831     Zr  0.95156600  0.20176586  0.47790335     1.88900
O1832       O  0.88746080  0.25214475  0.47006462    -0.73700
O1833       O  0.94267654  0.18455223  0.33955909    -0.52900
O1834       O  0.93316770  0.16008894  0.43874022    -0.97600
O1835       O  0.94477661  0.19458626  0.05466925    -0.54800
O1836       O  0.90079824  0.20596900  0.48500694    -0.74200
C1837       C  0.88220199  0.22611277  0.48233512     0.98200
O1838       O  0.89037836  0.31021229  0.42254934    -0.63000
O1839       O  0.52049379  0.31165405  0.04076459    -0.57800
O1840       O  0.92868453  0.31816985  0.48603716    -0.94500
O1841       O  0.95653266  0.30728059  0.04343119    -0.92900
O1842       O  0.52664183  0.34045590  0.43875585    -0.93300
O1843       O  0.48592396  0.34185402  0.37665408    -0.92100
C1844       C  0.93822439  0.32307548  0.02393428     1.17000
H1845       H  0.54323026  0.27981740  0.47394529     0.32900
H1846       H  0.95836533  0.28851157  0.35727427     0.43800
H1847       H  0.93191209  0.25228256  0.02307688     0.37300
H1848       H  0.98771578  0.17971093  0.41562034     0.33800
H1849       H  0.53147822  0.32138499  0.32597206     0.25600
H1850       H  0.94656587  0.18252738  0.30850816     0.31500
H1851       H  0.91504651  0.15500518  0.45318284     0.37400
H1852       H  0.53986628  0.34924107  0.41770626     0.31900
H1853       H  0.51038831  0.32918875  0.03058475     0.30800
H1854       H  0.98522705  0.27427254  0.11007573     0.32500
H1855       H  0.92808884  0.20659869  0.06249356     0.31400
H1856       H  0.96917825  0.34476016  0.39550401     0.35400
H1857       H  0.87942316  0.31211608  0.44959393     0.28200
H1858       H  0.58266955  0.19015641  0.42935074     0.32400
H1859       H  0.95163951  0.14556378  0.01658413     0.35200
H1860       H  0.51870881  0.31236592  0.07234643     0.27900
H1861       H  0.89957754  0.32927218  0.41830263     0.40700
H1862       H  0.48229893  0.26095596  0.28710556     0.30800
H1863       H  0.52682905  0.28838737  0.31677660     0.38400
H1864       H  0.96123319  0.20443205  0.06819306     0.30200
H1865       H  0.95271840  0.16797327  0.35285265     0.30300
H1866       H  0.56327984  0.17149304  0.45973412     0.30600
C1867       C  0.53129768  0.15015115  0.33242574     0.79800
N1868       N  0.52810292  0.12512613  0.35472766    -0.78500
C1869       C  0.52944427  0.09926379  0.33424928     0.82200
N1870       N  0.53433423  0.09848721  0.29143127    -0.78500
C1871       C  0.53830945  0.12339211  0.26905521     0.82300
N1872       N  0.53594314  0.14922798  0.28959981    -0.80200
C1873       C  0.55739137  0.14782438  0.15695360     0.02700
C1874       C  0.54867811  0.14829971  0.19980018    -0.13500
C1875       C  0.54500968  0.12246367  0.22278287     0.00200
C1876       C  0.54996307  0.09593894  0.20201400    -0.12000
C1877       C  0.55840177  0.09522261  0.15893760     0.02700
C1878       C  0.56184071  0.12124375  0.13625669    -0.11400
H1879       H  0.54608782  0.16904010  0.21560882     0.08300
H1880       H  0.54828589  0.07575778  0.21957069     0.05800
H1881       H  0.56995336  0.12086269  0.10373999     0.05600
C1882       C  0.56270964  0.02889926  0.08765226     0.02700
C1883       C  0.55300961  0.05494857  0.10584227    -0.13500
C1884       C  0.56773685  0.06758192  0.13999131     0.00200
C1885       C  0.59253276  0.05444298  0.15536972    -0.12000
C1886       C  0.60295359  0.02885921  0.13688509     0.02700
C1887       C  0.58759769  0.51559770  0.10348428    -0.11400
H1888       H  0.53399952  0.06537134  0.09342792     0.08300
H1889       H  0.60454575  0.06496131  0.18068958     0.05800
H1890       H  0.59579898  0.49621164  0.08828465     0.05600
C1891       C  0.89714529  0.46444724  0.29400687     0.02700
C1892       C  0.87192406  0.97734131  0.27854850    -0.13500
C1893       C  0.85636589  0.46364650  0.24580134     0.00200
C1894       C  0.86675526  0.43795900  0.22781312    -0.12000
C1895       C  0.89169759  0.42510280  0.24309040     0.02700
C1896       C  0.90676844  0.43817706  0.27649511    -0.11400
H1897       H  0.86376123  0.99687618  0.29338551     0.08300
H1898       H  0.85474101  0.42725631  0.20265453     0.05800
H1899       H  0.92601769  0.42806727  0.28862021     0.05600
Zr1900     Zr  0.92748456  0.47285560  0.43959902     2.17500
O1901       O  0.88722381  0.44097009  0.42403897    -0.51800
O1902       O  0.88634387  0.49804028  0.47109876    -0.75000
O1903       O  0.92411368  0.43279570  0.49030083    -0.81800
O1904       O  0.93061121  0.99771769  0.32105089    -0.83500
O1905       O  0.95372305  0.44293275  0.04601376    -0.79100
O1906       O  0.90996001  0.46551803  0.36675396    -0.90800
O1907       O  0.89993814  0.04402789  0.48675222    -0.76700
O1908       O  0.94403233  0.49893558  0.50046084    -0.86200
O1909       O  0.93305187  0.02189889  0.41674435    -0.85900
O1910       O  0.97226733  0.45014236  0.45829388    -0.72700
O1911       O  0.96202619  0.47210914  0.38276896    -0.84800
Zr1912     Zr  0.52955631  0.02623472  0.44246543     2.26400
Zr1913     Zr  0.98866942  0.47713402  0.01922460     2.06300
Zr1914     Zr  0.96831126  0.02128186  0.36128347     2.10000
Zr1915     Zr  0.95045592  0.04763856  0.47739283     1.78800
O1916       O  0.98353377  0.01004077  0.28856650    -0.93600
O1917       O  0.94155179  0.05599565  0.05333701    -0.41400
O1918       O  0.98523874  0.04840704  0.42152361    -0.78100
O1919       O  0.99447939  0.02681653  0.99895268    -0.96700
O1920       O  0.52410229  0.47696075  0.46384882    -0.90000
O1921       O  0.51330829  0.00056361  0.38073491    -0.92900
C1922       C  0.88130069  0.02393635  0.48416309     1.00900
C1923       C  0.91315597  0.47714973  0.32967110     1.13800
C1924       C  0.93469164  0.42749547  0.02738546     1.04600
O1925       O  0.97557582  0.48947584  0.09239279    -0.95000
O1926       O  0.52869574  0.49690123  0.05898304    -0.90800
O1927       O  0.54995440  0.02965384  0.01467402    -0.83900
C1928       C  0.54683338  0.01701274  0.05114429     1.11200
O1929       O  0.98960827  0.40578744  0.37443863    -0.97000
Zr1930     Zr  0.50694215  0.45174800  0.40249126     1.88900
O1931       O  0.57110403  0.00205795  0.41050196    -0.73700
O1932       O  0.51588756  0.43460725  0.04074729    -0.52900
O1933       O  0.52551271  0.41021813  0.44179639    -0.97600
O1934       O  0.51350937  0.44438906  0.32571968    -0.54800
O1935       O  0.55767273  0.45600511  0.39488934    -0.74200
C1936       C  0.57631270  0.47608791  0.39788013     0.98200
O1937       O  0.56811162  0.06018620  0.45804655    -0.63000
O1938       O  0.93816052  0.06155459  0.33912119    -0.57800
O1939       O  0.52978219  0.06816932  0.39443400    -0.94500
O1940       O  0.50221250  0.05706494  0.33683234    -0.92900
O1941       O  0.93206606  0.09038261  0.44102296    -0.93300
O1942       O  0.97247103  0.09195530  0.00349100    -0.92100
C1943       C  0.52038221  0.07297284  0.35642977     1.17000
H1944       H  0.91530029  0.02982958  0.40627004     0.32900
H1945       H  0.00010873  0.03854139  0.02307898     0.43800
H1946       H  0.52665800  0.00224162  0.35730936     0.37300
H1947       H  0.97073933  0.42975306  0.46477849     0.33800
H1948       H  0.92726180  0.07178261  0.05415838     0.25600
H1949       H  0.51231262  0.43279358  0.07191185     0.31500
H1950       H  0.54333500  0.40481162  0.42678163     0.37400
H1951       H  0.91893407  0.09936696  0.46201740     0.31900
H1952       H  0.94778896  0.07903086  0.35048820     0.30800
H1953       H  0.97330980  0.02412088  0.27022046     0.32500
H1954       H  0.53007092  0.45651713  0.31768267     0.31400
H1955       H  0.98976551  0.09433892  0.98562441     0.35400
H1956       H  0.57915151  0.06203343  0.43107265     0.28200
H1957       H  0.87580633  0.44015059  0.45071585     0.32400
H1958       H  0.50681462  0.39542359  0.36423031     0.35200
H1959       H  0.94077187  0.06278748  0.30770448     0.27900
H1960       H  0.55890769  0.07925919  0.96214557     0.40700
H1961       H  0.97535605  0.51091687  0.09294146     0.29200
H1962       H  0.93100475  0.03864432  0.06317436     0.38400
H1963       H  0.49692758  0.45405991  0.31226399     0.30200
H1964       H  0.50565087  0.41798419  0.02791828     0.30300
H1965       H  0.89541976  0.42131533  0.42088408     0.30600
C1966       C  0.90023636  0.34526032  0.22149209     0.02700
C1967       C  0.90868844  0.34596997  0.17841174    -0.13500
C1968       C  0.91365534  0.37249427  0.15762724     0.00200
C1969       C  0.91000672  0.39833584  0.18058651    -0.12000
C1970       C  0.90126773  0.39787881  0.22340646     0.02700
C1971       C  0.89680288  0.37130294  0.24413600    -0.11400
H1972       H  0.91034937  0.32578833  0.16085513     0.08300
H1973       H  0.91261320  0.41907229  0.16476893     0.05800
H1974       H  0.88867552  0.37094521  0.27664390     0.05600
C1975       C  0.92717865  0.40022550  0.04796309     0.79800
N1976       N  0.92258965  0.39928294  0.09079864    -0.78500
C1977       C  0.92030931  0.37343924  0.11134586     0.82200
N1978       N  0.92430742  0.34854911  0.08895661    -0.78500
C1979       C  0.92913740  0.34934477  0.04612531     0.82300
N1980       N  0.93040596  0.37521169  0.52564725    -0.80200
C1981       C  0.64707533  0.28177913  0.83629607     0.02700
C1982       C  0.65664197  0.30808900  0.85375137    -0.13500
C1983       C  0.64159702  0.32111446  0.88722718     0.00200
C1984       C  0.61670349  0.30819962  0.90256853    -0.12000
C1985       C  0.60634852  0.28249610  0.88459462     0.02700
C1986       C  0.62191178  0.26881760  0.85184003    -0.11400
H1987       H  0.67584595  0.31825053  0.84155973     0.08300
H1988       H  0.60468911  0.31887568  0.92775367     0.05800
H1989       H  0.61378497  0.24925199  0.83704738     0.05600
C1990       C  0.81275225  0.21736774  0.54274512     0.02700
C1991       C  0.83763068  0.23065863  0.52686098    -0.13500
C1992       C  0.85293511  0.21740651  0.99339715     0.00200
C1993       C  0.84246796  0.19184022  0.97490357    -0.12000
C1994       C  0.81767355  0.17871482  0.99032492     0.02700
C1995       C  0.80300218  0.19134347  0.02453527    -0.11400
H1996       H  0.84586383  0.25003052  0.54206156     0.08300
H1997       H  0.85444384  0.18132315  0.94954272     0.05800
H1998       H  0.78399337  0.18093617  0.53698260     0.05600
Zr1999     Zr  0.67751501  0.27344603  0.69073864     2.17500
O2000       O  0.63725003  0.30534798  0.70621171    -0.51800
O2001       O  0.63635808  0.24830936  0.65924640    -0.75000
O2002       O  0.67418076  0.31350635  0.64006831    -0.81800
O2003       O  0.68058503  0.24854773  0.80927279    -0.83500
O2004       O  0.70369135  0.30328740  0.58427211    -0.79100
O2005       O  0.65990094  0.28071155  0.76355089    -0.90800
O2006       O  0.64993225  0.20230871  0.64363480    -0.76700
O2007       O  0.69404436  0.24735623  0.62986839    -0.86200
O2008       O  0.68305422  0.22440161  0.71356833    -0.85900
O2009       O  0.72230552  0.29615032  0.67202535    -0.72700
O2010       O  0.71204665  0.27419284  0.74758129    -0.84800
Zr2011     Zr  0.77955568  0.22002759  0.68791259     2.26400
Zr2012     Zr  0.73868808  0.26913791  0.61109531     2.06300
Zr2013     Zr  0.71829535  0.22500387  0.76903705     2.10000
Zr2014     Zr  0.70045983  0.19865378  0.65292897     1.78800
O2015       O  0.73347004  0.23612146  0.84181590    -0.93600
O2016       O  0.69160016  0.19028298  0.57698427    -0.41400
O2017       O  0.73522719  0.19787156  0.70881295    -0.78100
O2018       O  0.74449804  0.21946152  0.63139587    -0.96700
O2019       O  0.77411433  0.26929619  0.66648311    -0.90000
O2020       O  0.76329858  0.24571736  0.74961525    -0.92900
C2021       C  0.63130096  0.22240949  0.64622317     1.00900
C2022       C  0.66310258  0.26908845  0.80063764     1.13800
C2023       C  0.68470572  0.31876334  0.60294145     1.04600
O2024       O  0.72557475  0.25673222  0.53795839    -0.95000
O2025       O  0.77875567  0.24937394  0.57141948    -0.90800
O2026       O  0.80001073  0.21662376  0.61573795    -0.83900
C2027       C  0.79689553  0.22926608  0.57926699     1.11200
O2028       O  0.73961317  0.34039398  0.75618775    -0.97000
Zr2029     Zr  0.75697779  0.29453127  0.72782737     1.88900
O2030       O  0.82107622  0.24411932  0.72009632    -0.73700
O2031       O  0.76588112  0.31163241  0.58936626    -0.52900
O2032       O  0.77537728  0.33613552  0.68850210    -0.97600
O2033       O  0.76381181  0.30182669  0.80456494    -0.54800
O2034       O  0.80774995  0.29030790  0.73499075    -0.74200
C2035       C  0.82634565  0.27015824  0.73234210     0.98200
O2036       O  0.81811416  0.18606212  0.67241589    -0.63000
O2037       O  0.68815570  0.18464195  0.79088930    -0.57800
O2038       O  0.77967148  0.17804801  0.73585349    -0.94500
O2039       O  0.75220630  0.18925172  0.79352046    -0.92900
O2040       O  0.68205070  0.15591289  0.68928496    -0.93300
O2041       O  0.72247822  0.15436286  0.62673049    -0.92100
C2042       C  0.77030886  0.17328574  0.77388940     1.17000
H2043       H  0.66529771  0.21648089  0.72403762     0.32900
H2044       H  0.75014216  0.20773754  0.60727864     0.43800
H2045       H  0.77663834  0.24403479  0.77305007     0.37300
H2046       H  0.72079217  0.31653907  0.66552947     0.33800
H2047       H  0.67704133  0.17475283  0.57616328     0.25600
H2048       H  0.76230033  0.31337688  0.55819472     0.31500
H2049       H  0.79341456  0.34134000  0.70308489     0.37400
H2050       H  0.66907013  0.14683547  0.66816832     0.31900
H2051       H  0.69807649  0.16715933  0.78012366     0.30800
H2052       H  0.72318625  0.22205144  0.86010366     0.32500
H2053       H  0.78037622  0.28966364  0.81246954     0.31400
H2054       H  0.73990180  0.15209449  0.64434329     0.35400
H2055       H  0.82906969  0.18412980  0.69945385     0.28200
H2056       H  0.62595645  0.30633717  0.67942949     0.32400
H2057       H  0.75684982  0.35086468  0.76603259     0.35200
H2058       H  0.69032378  0.18366495  0.82240085     0.27900
H2059       H  0.80889381  0.16701433  0.66815336     0.40700
H2060       H  0.72533437  0.23529180  0.53745720     0.30800
H2061       H  0.68137580  0.20779816  0.56701543     0.38400
H2062       H  0.74725503  0.29217896  0.81812955     0.30200
H2063       H  0.75563709  0.32827641  0.60212301     0.30300
H2064       H  0.64548071  0.32496412  0.70967617     0.30600
C2065       C  0.65114776  0.34833843  0.90693693     0.02700
C2066       C  0.65982734  0.34788390  0.94978836    -0.13500
C2067       C  0.66347232  0.37372857  0.47274565     0.00200
C2068       C  0.65852861  0.40024765  0.95194489    -0.12000
C2069       C  0.65014301  0.40095513  0.90883781     0.02700
C2070       C  0.64673753  0.37491396  0.88618169    -0.11400
H2071       H  0.66240841  0.32714888  0.96561966     0.08300
H2072       H  0.66017543  0.42043094  0.96949979     0.05800
H2073       H  0.63866533  0.37527428  0.85364353     0.05600
C2074       C  0.67716800  0.34602339  0.58236745     0.79800
N2075       N  0.67251239  0.34695829  0.53955090    -0.78500
C2076       C  0.67015198  0.37279924  0.51902038     0.82200
N2077       N  0.67414011  0.39769795  0.54140418    -0.78500
C2078       C  0.67902938  0.39690850  0.58422354     0.82300
N2079       N  0.68037288  0.37104017  0.60468347    -0.80200
C2080       C  0.64584484  0.46738273  0.83766089     0.02700
C2081       C  0.62096299  0.98067261  0.85352908    -0.13500
C2082       C  0.60558172  0.46735787  0.88685344     0.00200
C2083       C  0.61597964  0.44172652  0.90524371    -0.12000
C2084       C  0.64079001  0.42860264  0.88986913     0.02700
C2085       C  0.65553590  0.44129548  0.85577290    -0.11400
H2086       H  0.61277926  0.00009180  0.83839877     0.08300
H2087       H  0.60394878  0.43117347  0.93051316     0.05800
H2088       H  0.67455326  0.43089495  0.84334255     0.05600
C2089       C  0.81135454  0.03180506  0.54391165     0.02700
C2090       C  0.80180159  0.05815292  0.02653382    -0.13500
C2091       C  0.81688769  0.07125802  0.99314924     0.00200
C2092       C  0.84182215  0.05840661  0.97785766    -0.12000
C2093       C  0.85214289  0.03264382  0.99568602     0.02700
C2094       C  0.83654187  0.51888669  0.52834475    -0.11400
H2095       H  0.78257435  0.06827819  0.53870620     0.08300
H2096       H  0.85386274  0.06914669  0.95275894     0.05800
H2097       H  0.84465540  0.49928408  0.54304641     0.05600
Zr2098     Zr  0.78103525  0.02336420  0.68961121     2.17500
O2099       O  0.82147790  0.05501956  0.67412923    -0.51800
O2100       O  0.82211782  0.99824648  0.72138612    -0.75000
O2101       O  0.78433900  0.06355526  0.74014197    -0.81800
O2102       O  0.77784471  0.49850198  0.57091426    -0.83500
O2103       O  0.75481835  0.05335429  0.79593684    -0.79100
O2104       O  0.79853811  0.03062966  0.61668879    -0.90800
O2105       O  0.80858355  0.45220897  0.73681944    -0.76700
O2106       O  0.76450223  0.99729454  0.75050550    -0.86200
O2107       O  0.77546268  0.47430669  0.66680204    -0.85900
O2108       O  0.73625273  0.04609841  0.70825862    -0.72700
O2109       O  0.74651035  0.02406872  0.63275910    -0.84800
Zr2110     Zr  0.67896714  0.47000265  0.69244355     2.26400
Zr2111     Zr  0.71986970  0.01912361  0.76921464     2.06300
Zr2112     Zr  0.74022477  0.47488253  0.61131016     2.10000
Zr2113     Zr  0.75806114  0.44857977  0.72747622     1.78800
O2114       O  0.72465659  0.48587829  0.53867788    -0.93600
O2115       O  0.76684532  0.44011683  0.80343214    -0.41400
O2116       O  0.72328425  0.44778968  0.67157673    -0.78100
O2117       O  0.71403543  0.46943712  0.74894838    -0.96700
O2118       O  0.68443709  0.01928107  0.71381673    -0.90000
O2119       O  0.69523928  0.49564782  0.63072164    -0.92900
C2120       C  0.82719359  0.47233150  0.73433339     1.00900
C2121       C  0.79532274  0.01905235  0.57956346     1.13800
C2122       C  0.77379747  0.06883618  0.77726499     1.04600
O2123       O  0.73304625  0.00667098  0.84231940    -0.95000
O2124       O  0.67984029  0.99941615  0.80901107    -0.90800
O2125       O  0.65856481  0.46669313  0.76467087    -0.83900
C2126       C  0.66170185  0.47930951  0.80115833     1.11200
O2127       O  0.71902829  0.09035565  0.62421651    -0.97000
Zr2128     Zr  0.70159984  0.04447063  0.65243613     1.88900
O2129       O  0.63743679  0.49416342  0.66045803    -0.73700
O2130       O  0.69275248  0.06169565  0.79083918    -0.52900
O2131       O  0.68308009  0.08609991  0.69156889    -0.97600
O2132       O  0.69500289  0.05170926  0.57564856    -0.54800
O2133       O  0.65085274  0.04024010  0.64497769    -0.74200
C2134       C  0.63222174  0.02014260  0.64790275     0.98200
O2135       O  0.64037980  0.43607051  0.70795511    -0.63000
O2136       O  0.77045079  0.43458592  0.58945524    -0.57800
O2137       O  0.67858413  0.42811426  0.64429275    -0.94500
O2138       O  0.70647809  0.43894542  0.58691995    -0.92900
O2139       O  0.77667796  0.40577862  0.69150039    -0.93300
O2140       O  0.73586820  0.40434150  0.75352911    -0.92100
C2141       C  0.68813414  0.42318343  0.60640467     1.17000
H2142       H  0.79322170  0.46637902  0.65634861     0.32900
H2143       H  0.70838821  0.45772127  0.77307363     0.43800
H2144       H  0.68189093  0.49396373  0.60729438     0.37300
H2145       H  0.73775217  0.06649482  0.71471132     0.33800
H2146       H  0.78136400  0.42454580  0.80424957     0.25600
H2147       H  0.69664876  0.06370784  0.82188995     0.31500
H2148       H  0.66529730  0.09153473  0.67647263     0.37400
H2149       H  0.78990099  0.39698265  0.71254159     0.31900
H2150       H  0.76036432  0.41704558  0.59965567     0.30800
H2151       H  0.73482671  0.47176234  0.52032621     0.32500
H2152       H  0.67835728  0.03967362  0.56770529     0.31400
H2153       H  0.71921796  0.40138707  0.73450705     0.35400
H2154       H  0.62937186  0.43419748  0.68095595     0.28200
H2155       H  0.83277817  0.05591228  0.70091254     0.32400
H2156       H  0.70187487  0.10065838  0.61368013     0.35200
H2157       H  0.76862277  0.43388394  0.55787847     0.27900
H2158       H  0.64957403  0.41700019  0.71212760     0.40700
H2159       H  0.73242151  0.98524143  0.84317748     0.30800
H2160       H  0.77710029  0.45759562  0.81346619     0.38400
H2161       H  0.71151221  0.04190291  0.56220485     0.30200
H2162       H  0.70280267  0.07827198  0.77755188     0.30300
H2163       H  0.81336196  0.07468891  0.67072127     0.30600
C2164       C  0.78129807  0.09610865  0.79787677     0.79800
N2165       N  0.78588239  0.09703428  0.84072343    -0.78500
C2166       C  0.78816613  0.12287061  0.86129510     0.82200
N2167       N  0.78417085  0.14776940  0.83891745    -0.78500
C2168       C  0.77934262  0.14699296  0.79608373     0.82300
N2169       N  0.77808124  0.12113391  0.77558064    -0.80200
C2170       C  0.80730813  0.09846405  0.97339994     0.02700
C2171       C  0.81177469  0.12505121  0.99407410    -0.13500
C2172       C  0.80830201  0.15107191  0.97139973     0.00200
C2173       C  0.79980437  0.15034567  0.92834470    -0.12000
C2174       C  0.79485634  0.12381194  0.90758117     0.02700
C2175       C  0.79856553  0.09798011  0.93056480    -0.11400
H2176       H  0.81992430  0.12543769  0.52656924     0.08300
H2177       H  0.79809823  0.17052449  0.91078882     0.05800
H2178       H  0.79598634  0.07723707  0.91476070     0.05600
C2179       C  0.56142260  0.21443425  0.58636864     0.02700
C2180       C  0.58654944  0.22742535  0.60202420    -0.13500
C2181       C  0.60213636  0.21370954  0.63473556     0.00200
C2182       C  0.59181914  0.18795866  0.65259967    -0.12000
C2183       C  0.56694999  0.17503365  0.63720677     0.02700
C2184       C  0.55191630  0.18806066  0.60370883    -0.11400
H2185       H  0.59463967  0.24704245  0.58733639     0.08300
H2186       H  0.60383466  0.17726562  0.67776903     0.05800
H2187       H  0.53274599  0.17787126  0.59145231     0.05600
C2188       C  0.89581405  0.27887249  0.79273396     0.02700
C2189       C  0.90553082  0.30494982  0.77462499    -0.13500
C2190       C  0.89085131  0.31761481  0.74044380     0.00200
C2191       C  0.86606533  0.30448058  0.72499555    -0.12000
C2192       C  0.85562197  0.27886995  0.74340312     0.02700
C2193       C  0.87096127  0.26556721  0.77678623    -0.11400
H2194       H  0.92452633  0.31535916  0.78711290     0.08300
H2195       H  0.85408040  0.31501873  0.69966514     0.05800
H2196       H  0.86276035  0.24615183  0.79190672     0.05600
Zr2197     Zr  0.53100190  0.22282856  0.94073559     2.17500
O2198       O  0.57142578  0.19113833  0.95618064    -0.51800
O2199       O  0.57211095  0.24790737  0.90903224    -0.75000
O2200       O  0.53429624  0.18268869  0.89014296    -0.81800
O2201       O  0.52789852  0.24771177  0.55936316    -0.83500
O2202       O  0.50476875  0.19288108  0.83435335    -0.79100
O2203       O  0.54857242  0.21556146  0.51360550    -0.90800
O2204       O  0.55856581  0.29392296  0.89347374    -0.76700
O2205       O  0.51447742  0.24890136  0.87984276    -0.86200
O2206       O  0.52546588  0.27189604  0.96350708    -0.85900
O2207       O  0.98621814  0.20010616  0.92207967    -0.72700
O2208       O  0.99649337  0.22213064  0.49761332    -0.84800
Zr2209     Zr  0.92897148  0.27625933  0.93794213     2.26400
Zr2210     Zr  0.96983297  0.22710453  0.86113743     2.06300
Zr2211     Zr  0.99025298  0.27133644  0.51902406     2.10000
Zr2212     Zr  0.50805379  0.29761980  0.90283844     1.78800
O2213       O  0.97466441  0.26047588  0.59169398    -0.93600
O2214       O  0.51678798  0.30598368  0.82685116    -0.41400
O2215       O  0.97330694  0.29844086  0.95877265    -0.78100
O2216       O  0.96401375  0.27679418  0.88139886    -0.96700
O2217       O  0.93441462  0.22698246  0.91655099    -0.90000
O2218       O  0.94525231  0.25059235  0.99963904    -0.92900
C2219       C  0.57717997  0.27380836  0.89603377     1.00900
C2220       C  0.54537758  0.22716186  0.55071621     1.13800
C2221       C  0.52375978  0.17741158  0.85302092     1.04600
O2222       O  0.98301948  0.23953112  0.78802418    -0.95000
O2223       O  0.92977774  0.24682488  0.82141108    -0.90800
O2224       O  0.90853417  0.27958292  0.86573506    -0.83900
C2225       C  0.91165265  0.26694600  0.82925700     1.11200
O2226       O  0.96885938  0.15589892  0.50636275    -0.97000
Zr2227     Zr  0.95156600  0.20176578  0.97790322     1.88900
O2228       O  0.88746085  0.25214469  0.97006476    -0.73700
O2229       O  0.94267655  0.18455225  0.83955914    -0.52900
O2230       O  0.93316760  0.16008891  0.93874004    -0.97600
O2231       O  0.94477639  0.19458651  0.55466938    -0.54800
O2232       O  0.90079825  0.20596894  0.98500710    -0.74200
C2233       C  0.88220201  0.22611273  0.98233524     0.98200
O2234       O  0.89037834  0.31021220  0.92254936    -0.63000
O2235       O  0.52049376  0.31165422  0.54076441    -0.57800
O2236       O  0.92868448  0.31816977  0.98603706    -0.94500
O2237       O  0.95653273  0.30728073  0.54343129    -0.92900
O2238       O  0.52664181  0.34045590  0.93875620    -0.93300
O2239       O  0.48592392  0.34185411  0.87665451    -0.92100
C2240       C  0.93822444  0.32307558  0.52393438     1.17000
H2241       H  0.54323002  0.27981736  0.97394514     0.32900
H2242       H  0.95836546  0.28851131  0.85727509     0.43800
H2243       H  0.93191251  0.25228271  0.52307605     0.37300
H2244       H  0.98771586  0.17971097  0.91562011     0.33800
H2245       H  0.53147817  0.32138535  0.82597231     0.25600
H2246       H  0.94656567  0.18252754  0.80850866     0.31500
H2247       H  0.91504661  0.15500532  0.95318239     0.37400
H2248       H  0.53986643  0.34924081  0.91770722     0.31900
H2249       H  0.51038857  0.32918857  0.53058446     0.30800
H2250       H  0.98522735  0.27427270  0.61007561     0.32500
H2251       H  0.92808853  0.20659902  0.56249356     0.31400
H2252       H  0.96917891  0.34476068  0.89550527     0.35400
H2253       H  0.87942295  0.31211603  0.94959457     0.28200
H2254       H  0.58266965  0.19015636  0.92935021     0.32400
H2255       H  0.95163946  0.14556390  0.51658457     0.35200
H2256       H  0.51870860  0.31236615  0.57234641     0.27900
H2257       H  0.89957724  0.32927168  0.91830279     0.40700
H2258       H  0.48229910  0.26095600  0.78710550     0.30800
H2259       H  0.52682904  0.28838780  0.81677676     0.38400
H2260       H  0.96123289  0.20443231  0.56819325     0.30200
H2261       H  0.95271856  0.16797322  0.85285266     0.30300
H2262       H  0.56327991  0.17149321  0.95973403     0.30600
C2263       C  0.53129788  0.15015123  0.83242568     0.79800
N2264       N  0.52810309  0.12512623  0.85472764    -0.78500
C2265       C  0.52944431  0.09926388  0.83424926     0.82200
N2266       N  0.53433422  0.09848726  0.79143126    -0.78500
C2267       C  0.53830954  0.12339215  0.76905517     0.82300
N2268       N  0.53594331  0.14922803  0.78959976    -0.80200
C2269       C  0.55739150  0.14782437  0.65695360     0.02700
C2270       C  0.54867813  0.14829972  0.69980015    -0.13500
C2271       C  0.54500968  0.12246369  0.72278284     0.00200
C2272       C  0.54996302  0.09593895  0.70201400    -0.12000
C2273       C  0.55840179  0.09522262  0.65893763     0.02700
C2274       C  0.56184088  0.12124374  0.63625674    -0.11400
H2275       H  0.54608781  0.16904012  0.71560876     0.08300
H2276       H  0.54828579  0.07575781  0.71957070     0.05800
H2277       H  0.56995360  0.12086268  0.60374006     0.05600
C2278       C  0.56270955  0.02889927  0.58765235     0.02700
C2279       C  0.55300953  0.05494857  0.60584238    -0.13500
C2280       C  0.56773680  0.06758190  0.63999141     0.00200
C2281       C  0.59253274  0.05444296  0.65536976    -0.12000
C2282       C  0.60295361  0.02885925  0.63688500     0.02700
C2283       C  0.58759762  0.51559770  0.60348435    -0.11400
H2284       H  0.53399946  0.06537138  0.59342803     0.08300
H2285       H  0.60454574  0.06496126  0.68068963     0.05800
H2286       H  0.59579889  0.49621162  0.58828476     0.05600
C2287       C  0.89714527  0.46444727  0.79400698     0.02700
C2288       C  0.87192403  0.97734134  0.77854856    -0.13500
C2289       C  0.85636594  0.46364657  0.74580128     0.00200
C2290       C  0.86675533  0.43795909  0.72781301    -0.12000
C2291       C  0.89169760  0.42510284  0.74309047     0.02700
C2292       C  0.90676841  0.43817709  0.77649524    -0.11400
H2293       H  0.86376116  0.99687618  0.79338560     0.08300
H2294       H  0.85474113  0.42725643  0.70265433     0.05800
H2295       H  0.92601765  0.42806730  0.78862038     0.05600
Zr2296     Zr  0.92748456  0.47285564  0.93959909     2.17500
O2297       O  0.88722376  0.44097012  0.92403939    -0.51800
O2298       O  0.88634383  0.49804033  0.97109869    -0.75000
O2299       O  0.92411367  0.43279574  0.99030092    -0.81800
O2300       O  0.93061119  0.99771773  0.82105098    -0.83500
O2301       O  0.95372294  0.44293286  0.54601376    -0.79100
O2302       O  0.90996011  0.46551803  0.86675402    -0.90800
O2303       O  0.89993814  0.04402780  0.98675241    -0.76700
O2304       O  0.94403234  0.49893556  0.00046098    -0.86200
O2305       O  0.93305185  0.02189894  0.91674446    -0.85900
O2306       O  0.97226733  0.45014240  0.95829378    -0.72700
O2307       O  0.96202613  0.47210917  0.88276891    -0.84800
Zr2308     Zr  0.52955629  0.02623478  0.94246553     2.26400
Zr2309     Zr  0.98866938  0.47713405  0.51922465     2.06300
Zr2310     Zr  0.96831122  0.02128198  0.86128352     2.10000
Zr2311     Zr  0.95045592  0.04763851  0.97739299     1.78800
O2312       O  0.98353375  0.01004101  0.78856650    -0.93600
O2313       O  0.94155179  0.05599593  0.55333679    -0.41400
O2314       O  0.98523871  0.04840709  0.92152375    -0.78100
O2315       O  0.99447939  0.02681656  0.49895262    -0.96700
O2316       O  0.52410225  0.47696077  0.96384877    -0.90000
O2317       O  0.51330827  0.00056375  0.88073496    -0.92900
C2318       C  0.88130064  0.02393629  0.98416309     1.00900
C2319       C  0.91315599  0.47714977  0.82967116     1.13800
C2320       C  0.93469158  0.42749553  0.52738547     1.04600
O2321       O  0.97557557  0.48947604  0.59239268    -0.95000
O2322       O  0.52869575  0.49690114  0.55898302    -0.90800
O2323       O  0.54995431  0.02965382  0.51467406    -0.83900
C2324       C  0.54683328  0.01701274  0.55114436     1.11200
O2325       O  0.98960824  0.40578757  0.87443837    -0.97000
Zr2326     Zr  0.50694213  0.45174807  0.90249115     1.88900
O2327       O  0.57110402  0.00205797  0.91050210    -0.73700
O2328       O  0.51588749  0.43460732  0.54074763    -0.52900
O2329       O  0.52551266  0.41021799  0.94179588    -0.97600
O2330       O  0.51350935  0.44438930  0.82571954    -0.54800
O2331       O  0.55767271  0.45600517  0.89488921    -0.74200
C2332       C  0.57631270  0.47608796  0.89788012     0.98200
O2333       O  0.56811160  0.06018625  0.95804690    -0.63000
O2334       O  0.93816035  0.06155462  0.83912138    -0.57800
O2335       O  0.52978223  0.06816938  0.89443401    -0.94500
O2336       O  0.50221238  0.05706514  0.83683244    -0.92900
O2337       O  0.93206639  0.09038277  0.94102335    -0.93300
O2338       O  0.97247114  0.09195545  0.50349047    -0.92100
C2339       C  0.52038218  0.07297297  0.85642984     1.17000
H2340       H  0.91530026  0.02982963  0.90627019     0.32900
H2341       H  0.00010855  0.03854106  0.52307809     0.43800
H2342       H  0.52665799  0.00224176  0.85730947     0.37300
H2343       H  0.97073926  0.42975303  0.96477837     0.33800
H2344       H  0.92726175  0.07178276  0.55415804     0.25600
H2345       H  0.51231231  0.43279366  0.57191272     0.31500
H2346       H  0.54333507  0.40481157  0.92678112     0.37400
H2347       H  0.91893457  0.09936708  0.96201776     0.31900
H2348       H  0.94778869  0.07903079  0.85048822     0.30800
H2349       H  0.97330919  0.02412097  0.77022015     0.32500
H2350       H  0.53007091  0.45651743  0.81768256     0.31400
H2351       H  0.98976526  0.09433954  0.48562283     0.35400
H2352       H  0.57915133  0.06203355  0.93107345     0.28200
H2353       H  0.87580637  0.44015057  0.95071639     0.32400
H2354       H  0.50681436  0.39542390  0.86423003     0.35200
H2355       H  0.94077160  0.06278748  0.80770454     0.27900
H2356       H  0.55890785  0.07925908  0.46214495     0.40700
H2357       H  0.97535626  0.51091741  0.59294140     0.29200
H2358       H  0.93100472  0.03864445  0.56317437     0.38400
H2359       H  0.49692748  0.45406028  0.81226383     0.30200
H2360       H  0.50565104  0.41798441  0.52791879     0.30300
H2361       H  0.89541969  0.42131540  0.92088437     0.30600
C2362       C  0.90023638  0.34526036  0.72149221     0.02700
C2363       C  0.90868852  0.34597001  0.67841191    -0.13500
C2364       C  0.91365542  0.37249432  0.65762740     0.00200
C2365       C  0.91000683  0.39833589  0.68058667    -0.12000
C2366       C  0.90126777  0.39787885  0.72340656     0.02700
C2367       C  0.89680286  0.37130299  0.74413608    -0.11400
H2368       H  0.91034950  0.32578836  0.66085533     0.08300
H2369       H  0.91261338  0.41907235  0.66476915     0.05800
H2370       H  0.88867544  0.37094526  0.77664393     0.05600
C2371       C  0.92717861  0.40022557  0.54796320     0.79800
N2372       N  0.92258971  0.39928300  0.59079879    -0.78500
C2373       C  0.92030939  0.37343930  0.61134602     0.82200
N2374       N  0.92430751  0.34854917  0.58895676    -0.78500
C2375       C  0.92913742  0.34934485  0.54612544     0.82300
N2376       N  0.93040605  0.37521162  0.02564713    -0.80200
C2377       C  0.64707519  0.78177911  0.33629605     0.02700
C2378       C  0.65664183  0.80808899  0.35375132    -0.13500
C2379       C  0.64159697  0.82111445  0.38722720     0.00200
C2380       C  0.61670343  0.80819963  0.40256855    -0.12000
C2381       C  0.60634841  0.78249613  0.38459461     0.02700
C2382       C  0.62191164  0.76881759  0.35184008    -0.11400
H2383       H  0.67584579  0.81825049  0.34155957     0.08300
H2384       H  0.60468909  0.81887568  0.42775374     0.05800
H2385       H  0.61378483  0.74925193  0.33704757     0.05600
C2386       C  0.81275224  0.71736775  0.04274517     0.02700
C2387       C  0.83763065  0.73065863  0.02686101    -0.13500
C2388       C  0.85293509  0.71740649  0.49339711     0.00200
C2389       C  0.84246794  0.69184020  0.47490357    -0.12000
C2390       C  0.81767353  0.67871480  0.49032493     0.02700
C2391       C  0.80300221  0.69134345  0.52453529    -0.11400
H2392       H  0.84586378  0.75003055  0.04206153     0.08300
H2393       H  0.85444377  0.68132314  0.44954271     0.05800
H2394       H  0.78399334  0.68093620  0.03698267     0.05600
Zr2395     Zr  0.67751495  0.77344597  0.19073859     2.17500
O2396       O  0.63724995  0.80534789  0.20621178    -0.51800
O2397       O  0.63635809  0.74830928  0.15924624    -0.75000
O2398       O  0.67418059  0.81350627  0.14006827    -0.81800
O2399       O  0.68058510  0.74854784  0.30927287    -0.83500
O2400       O  0.70369135  0.80328739  0.08427225    -0.79100
O2401       O  0.65990080  0.78071142  0.26355083    -0.90800
O2402       O  0.64993225  0.70230861  0.14363468    -0.76700
O2403       O  0.69404441  0.74735616  0.12986841    -0.86200
O2404       O  0.68305423  0.72440155  0.21356824    -0.85900
O2405       O  0.72230545  0.79615029  0.17202534    -0.72700
O2406       O  0.71204660  0.77419284  0.24758118    -0.84800
Zr2407     Zr  0.77955566  0.72002756  0.18791264     2.26400
Zr2408     Zr  0.73868810  0.76913789  0.11109531     2.06300
Zr2409     Zr  0.71829534  0.72500390  0.26903699     2.10000
Zr2410     Zr  0.70045988  0.69865370  0.15292890     1.78800
O2411       O  0.73347007  0.73612157  0.34181578    -0.93600
O2412       O  0.69160020  0.69028279  0.07698426    -0.41400
O2413       O  0.73522718  0.69787153  0.20881293    -0.78100
O2414       O  0.74449807  0.71946149  0.13139588    -0.96700
O2415       O  0.77411428  0.76929612  0.16648315    -0.90000
O2416       O  0.76329858  0.74571735  0.24961529    -0.92900
C2417       C  0.63130097  0.72240940  0.14622305     1.00900
C2418       C  0.66310251  0.76908842  0.30063766     1.13800
C2419       C  0.68470565  0.81876330  0.10294150     1.04600
O2420       O  0.72557457  0.75673221  0.03795855    -0.95000
O2421       O  0.77875570  0.74937404  0.07141941    -0.90800
O2422       O  0.80001066  0.71662384  0.11573796    -0.83900
C2423       C  0.79689550  0.72926614  0.07926698     1.11200
O2424       O  0.73961315  0.84039394  0.25618763    -0.97000
Zr2425     Zr  0.75697774  0.79453123  0.22782735     1.88900
O2426       O  0.82107619  0.74411928  0.22009645    -0.73700
O2427       O  0.76588111  0.81163239  0.08936595    -0.52900
O2428       O  0.77537732  0.83613561  0.18850235    -0.97600
O2429       O  0.76381173  0.80182647  0.30456495    -0.54800
O2430       O  0.80774985  0.79030785  0.23499082    -0.74200
C2431       C  0.82634559  0.77015822  0.23234217     0.98200
O2432       O  0.81811410  0.68606207  0.17241587    -0.63000
O2433       O  0.68815560  0.68464208  0.29088932    -0.57800
O2434       O  0.77967140  0.67804799  0.23585352    -0.94500
O2435       O  0.75220616  0.68925167  0.29352043    -0.92900
O2436       O  0.68205072  0.65591280  0.18928482    -0.93300
O2437       O  0.72247841  0.65436281  0.12673059    -0.92100
C2438       C  0.77030876  0.67328573  0.27388940     1.17000
H2439       H  0.66529795  0.71648090  0.22403737     0.32900
H2440       H  0.75014237  0.70773717  0.10727788     0.43800
H2441       H  0.77663866  0.74403473  0.27305074     0.37300
H2442       H  0.72079202  0.81653894  0.16552958     0.33800
H2443       H  0.67704104  0.67475239  0.07616343     0.25600
H2444       H  0.76230025  0.81337686  0.05819402     0.31500
H2445       H  0.79341454  0.84133987  0.20308484     0.37400
H2446       H  0.66907032  0.64683538  0.16816825     0.31900
H2447       H  0.69807594  0.66715984  0.28012375     0.30800
H2448       H  0.72318624  0.72205177  0.36010344     0.32500
H2449       H  0.78037643  0.78966289  0.31246979     0.31400
H2450       H  0.73990184  0.65209402  0.14434463     0.35400
H2451       H  0.82906935  0.68412976  0.19945298     0.28200
H2452       H  0.62595635  0.80633707  0.17942970     0.32400
H2453       H  0.75684995  0.85086457  0.26603282     0.35200
H2454       H  0.69032387  0.68366501  0.32240156     0.27900
H2455       H  0.80889338  0.66701387  0.16815310     0.40700
H2456       H  0.72533462  0.73529145  0.03745720     0.30800
H2457       H  0.68137616  0.70779756  0.06701556     0.38400
H2458       H  0.74725505  0.79217900  0.31812950     0.30200
H2459       H  0.75563706  0.82827657  0.10212259     0.30300
H2460       H  0.64548059  0.82496399  0.20967628     0.30600
C2461       C  0.65114778  0.84833841  0.40693696     0.02700
C2462       C  0.65982735  0.84788389  0.44978839    -0.13500
C2463       C  0.66347231  0.87372855  0.97274567     0.00200
C2464       C  0.65852868  0.90024768  0.45194493    -0.12000
C2465       C  0.65014304  0.90095513  0.40883788     0.02700
C2466       C  0.64673756  0.87491397  0.38618173    -0.11400
H2467       H  0.66240834  0.82714885  0.46561973     0.08300
H2468       H  0.66017549  0.92043099  0.46949981     0.05800
H2469       H  0.63866532  0.87527429  0.35364356     0.05600
C2470       C  0.67716802  0.84602338  0.08236751     0.79800
N2471       N  0.67251243  0.84695830  0.03955095    -0.78500
C2472       C  0.67015201  0.87279926  0.01902044     0.82200
N2473       N  0.67414014  0.89769795  0.04140425    -0.78500
C2474       C  0.67902943  0.89690847  0.08422362     0.82300
N2475       N  0.68037291  0.87104013  0.10468355    -0.80200
C2476       C  0.64584488  0.96738266  0.33766093     0.02700
C2477       C  0.62096292  0.48067255  0.35352901    -0.13500
C2478       C  0.60558174  0.96735779  0.38685350     0.00200
C2479       C  0.61597969  0.94172651  0.40524385    -0.12000
C2480       C  0.64079004  0.92860263  0.38986924     0.02700
C2481       C  0.65553595  0.94129545  0.35577303    -0.11400
H2482       H  0.61277911  0.50009168  0.33839863     0.08300
H2483       H  0.60394885  0.93117348  0.43051333     0.05800
H2484       H  0.67455331  0.93089492  0.34334273     0.05600
C2485       C  0.81135446  0.53180510  0.04391165     0.02700
C2486       C  0.80180156  0.55815279  0.52653369    -0.13500
C2487       C  0.81688767  0.57125793  0.49314916     0.00200
C2488       C  0.84182214  0.55840652  0.47785762    -0.12000
C2489       C  0.85214295  0.53264379  0.49568611     0.02700
C2490       C  0.83654179  0.01888675  0.02834468    -0.11400
H2491       H  0.78257442  0.56827839  0.03870637     0.08300
H2492       H  0.85386272  0.56914654  0.45275885     0.05800
H2493       H  0.84465530  0.99928413  0.04304628     0.05600
Zr2494     Zr  0.78103523  0.52336416  0.18961126     2.17500
O2495       O  0.82147795  0.55501947  0.17412918    -0.51800
O2496       O  0.82211777  0.49824642  0.22138626    -0.75000
O2497       O  0.78433890  0.56355518  0.24014203    -0.81800
O2498       O  0.77784473  0.99850209  0.07091433    -0.83500
O2499       O  0.75481817  0.55335428  0.29593683    -0.79100
O2500       O  0.79853813  0.53062967  0.11668886    -0.90800
O2501       O  0.80858358  0.95220898  0.23681931    -0.76700
O2502       O  0.76450211  0.49729452  0.25050553    -0.86200
O2503       O  0.77546266  0.97430665  0.16680203    -0.85900
O2504       O  0.73625271  0.54609837  0.20825862    -0.72700
O2505       O  0.74651024  0.52406868  0.13275926    -0.84800
Zr2506     Zr  0.67896719  0.97000257  0.19244352     2.26400
Zr2507     Zr  0.71986957  0.51912360  0.26921455     2.06300
Zr2508     Zr  0.74022477  0.97488254  0.11131010     2.10000
Zr2509     Zr  0.75806112  0.94857971  0.22747620     1.78800
O2510       O  0.72465663  0.98587822  0.03867774    -0.93600
O2511       O  0.76684537  0.94011676  0.30343206    -0.41400
O2512       O  0.72328428  0.94778961  0.17157661    -0.78100
O2513       O  0.71403542  0.96943705  0.24894841    -0.96700
O2514       O  0.68443692  0.51928110  0.21381670    -0.90000
O2515       O  0.69523933  0.99564785  0.13072169    -0.92900
C2516       C  0.82719363  0.97233152  0.23433338     1.00900
C2517       C  0.79532269  0.51905239  0.07956353     1.13800
C2518       C  0.77379731  0.56883615  0.27726500     1.04600
O2519       O  0.73304628  0.50667107  0.34231926    -0.95000
O2520       O  0.67984024  0.49941612  0.30901101    -0.90800
O2521       O  0.65856483  0.96669305  0.26467085    -0.83900
C2522       C  0.66170189  0.97930945  0.30115831     1.11200
O2523       O  0.71902831  0.59035572  0.12421672    -0.97000
Zr2524     Zr  0.70159976  0.54447070  0.15243622     1.88900
O2525       O  0.63743685  0.99416340  0.16045809    -0.73700
O2526       O  0.69275238  0.56169563  0.29083931    -0.52900
O2527       O  0.68308009  0.58609993  0.19156913    -0.97600
O2528       O  0.69500297  0.55170923  0.07564867    -0.54800
O2529       O  0.65085262  0.54024017  0.14497783    -0.74200
C2530       C  0.63222168  0.52014260  0.14790272     0.98200
O2531       O  0.64037983  0.93607044  0.20795497    -0.63000
O2532       O  0.77045088  0.93458597  0.08945529    -0.57800
O2533       O  0.67858414  0.92811421  0.14429274    -0.94500
O2534       O  0.70647815  0.93894535  0.08691997    -0.92900
O2535       O  0.77667801  0.90577853  0.19150053    -0.93300
O2536       O  0.73586828  0.90434146  0.25352929    -0.92100
C2537       C  0.68813419  0.92318338  0.10640469     1.17000
H2538       H  0.79322106  0.96637921  0.15634899     0.32900
H2539       H  0.70838812  0.95772108  0.27307397     0.43800
H2540       H  0.68189101  0.99396386  0.10729453     0.37300
H2541       H  0.73775215  0.56649492  0.21471146     0.33800
H2542       H  0.78136409  0.92454571  0.30424943     0.25600
H2543       H  0.69664871  0.56370771  0.32189026     0.31500
H2544       H  0.66529730  0.59153475  0.17647287     0.37400
H2545       H  0.78990102  0.89698261  0.21254180     0.31900
H2546       H  0.76036438  0.91704567  0.09965565     0.30800
H2547       H  0.73482676  0.97176227  0.02032610     0.32500
H2548       H  0.67835704  0.53967355  0.06770538     0.31400
H2549       H  0.71921750  0.90138728  0.23450764     0.35400
H2550       H  0.62937185  0.93419747  0.18095578     0.28200
H2551       H  0.83277808  0.55591215  0.20091211     0.32400
H2552       H  0.70187482  0.60065855  0.11368011     0.35200
H2553       H  0.76862302  0.93388407  0.05787891     0.27900
H2554       H  0.64957404  0.91700010  0.21212734     0.40700
H2555       H  0.73242155  0.48524177  0.34317744     0.30800
H2556       H  0.77710026  0.95759547  0.31346607     0.38400
H2557       H  0.71151201  0.54190278  0.06220523     0.30200
H2558       H  0.70280233  0.57827165  0.27755228     0.30300
H2559       H  0.81336196  0.57468894  0.17072124     0.30600
C2560       C  0.78129792  0.59610866  0.29787673     0.79800
N2561       N  0.78588224  0.59703429  0.34072338    -0.78500
C2562       C  0.78816609  0.62287064  0.36129502     0.82200
N2563       N  0.78417086  0.64776942  0.33891738    -0.78500
C2564       C  0.77934257  0.64699298  0.29608367     0.82300
N2565       N  0.77808117  0.62113392  0.27558057    -0.80200
C2566       C  0.80730813  0.59846399  0.47339985     0.02700
C2567       C  0.81177462  0.62505116  0.49407406    -0.13500
C2568       C  0.80830196  0.65107189  0.47139971     0.00200
C2569       C  0.79980426  0.65034566  0.42834469    -0.12000
C2570       C  0.79485625  0.62381193  0.40758112     0.02700
C2571       C  0.79856552  0.59798007  0.43056469    -0.11400
H2572       H  0.81992404  0.62543776  0.02656941     0.08300
H2573       H  0.79809813  0.67052450  0.41078884     0.05800
H2574       H  0.79598639  0.57723704  0.41476057     0.05600
C2575       C  0.56142264  0.71443426  0.08636853     0.02700
C2576       C  0.58654951  0.72742532  0.10202407    -0.13500
C2577       C  0.60213636  0.71370951  0.13473547     0.00200
C2578       C  0.59181906  0.68795868  0.15259969    -0.12000
C2579       C  0.56694989  0.67503369  0.13720676     0.02700
C2580       C  0.55191627  0.68806070  0.10370876    -0.11400
H2581       H  0.59463979  0.74704243  0.08733625     0.08300
H2582       H  0.60383457  0.67726565  0.17776910     0.05800
H2583       H  0.53274593  0.67787134  0.09145221     0.05600
C2584       C  0.89581399  0.77887255  0.29273406     0.02700
C2585       C  0.90553085  0.80494979  0.27462493    -0.13500
C2586       C  0.89085137  0.81761474  0.24044369     0.00200
C2587       C  0.86606535  0.80448053  0.22499548    -0.12000
C2588       C  0.85562192  0.77886998  0.24340319     0.02700
C2589       C  0.87096116  0.76556733  0.27678642    -0.11400
H2590       H  0.92452639  0.81535910  0.28711281     0.08300
H2591       H  0.85408047  0.81501865  0.19966503     0.05800
H2592       H  0.86276020  0.74615203  0.29190704     0.05600
Zr2593     Zr  0.53100186  0.72282851  0.44073563     2.17500
O2594       O  0.57142571  0.69113828  0.45618080    -0.51800
O2595       O  0.57211090  0.74790733  0.40903219    -0.75000
O2596       O  0.53429624  0.68268866  0.39014295    -0.81800
O2597       O  0.52789842  0.74771169  0.05936329    -0.83500
O2598       O  0.50476860  0.69288095  0.33435346    -0.79100
O2599       O  0.54857251  0.71556162  0.01360544    -0.90800
O2600       O  0.55856571  0.79392290  0.39347366    -0.76700
O2601       O  0.51447732  0.74890129  0.37984282    -0.86200
O2602       O  0.52546589  0.77189602  0.46350704    -0.85900
O2603       O  0.98621805  0.70010611  0.42207978    -0.72700
O2604       O  0.99649331  0.72213052  0.99761314    -0.84800
Zr2605     Zr  0.92897150  0.77625941  0.43794207     2.26400
Zr2606     Zr  0.96983286  0.72710447  0.36113746     2.06300
Zr2607     Zr  0.99025290  0.77133626  0.01902417     2.10000
Zr2608     Zr  0.50805373  0.79761975  0.40283834     1.78800
O2609       O  0.97466429  0.76047562  0.09169408    -0.93600
O2610       O  0.51678787  0.80598344  0.32685100    -0.41400
O2611       O  0.97330695  0.79844099  0.45877259    -0.78100
O2612       O  0.96401377  0.77679410  0.38139883    -0.96700
O2613       O  0.93441456  0.72698249  0.41655105    -0.90000
O2614       O  0.94525229  0.75059248  0.49963905    -0.92900
C2615       C  0.57717989  0.77380833  0.39603376     1.00900
C2616       C  0.54537759  0.72716190  0.05071620     1.13800
C2617       C  0.52375967  0.67741149  0.35302100     1.04600
O2618       O  0.98301953  0.73953107  0.28802427    -0.95000
O2619       O  0.92977755  0.74682481  0.32141127    -0.90800
O2620       O  0.90853418  0.77958305  0.36573512    -0.83900
C2621       C  0.91165257  0.76694604  0.32925712     1.11200
O2622       O  0.96885928  0.65589878  0.00636231    -0.97000
Zr2623     Zr  0.95156595  0.70176584  0.47790334     1.88900
O2624       O  0.88746081  0.75214472  0.47006463    -0.73700
O2625       O  0.94267642  0.68455221  0.33955911    -0.52900
O2626       O  0.93316766  0.66008889  0.43874025    -0.97600
O2627       O  0.94477642  0.69458623  0.05466922    -0.54800
O2628       O  0.90079820  0.70596897  0.48500696    -0.74200
C2629       C  0.88220197  0.72611274  0.48233512     0.98200
O2630       O  0.89037837  0.81021227  0.42254934    -0.63000
O2631       O  0.52049366  0.81165411  0.04076463    -0.57800
O2632       O  0.92868450  0.81816982  0.48603716    -0.94500
O2633       O  0.95653254  0.80728048  0.04343134    -0.92900
O2634       O  0.52664168  0.84045592  0.43875583    -0.93300
O2635       O  0.48592379  0.84185397  0.37665409    -0.92100
C2636       C  0.93822437  0.82307543  0.02393433     1.17000
H2637       H  0.54323002  0.77981727  0.47394516     0.32900
H2638       H  0.95836534  0.78851153  0.35727427     0.43800
H2639       H  0.93191208  0.75228255  0.02307687     0.37300
H2640       H  0.98771578  0.67971091  0.41562036     0.33800
H2641       H  0.53147793  0.82138487  0.32597204     0.25600
H2642       H  0.94656573  0.68252737  0.30850817     0.31500
H2643       H  0.91504655  0.65500529  0.45318250     0.37400
H2644       H  0.53986611  0.84924093  0.41770654     0.31900
H2645       H  0.51038812  0.82918878  0.03058480     0.30800
H2646       H  0.98522707  0.77427252  0.11007574     0.32500
H2647       H  0.92808857  0.70659871  0.06249352     0.31400
H2648       H  0.96917828  0.84476027  0.39550440     0.35400
H2649       H  0.87942318  0.81211606  0.44959392     0.28200
H2650       H  0.58266976  0.69015633  0.42935012     0.32400
H2651       H  0.95163914  0.64556366  0.01658427     0.35200
H2652       H  0.51870861  0.81236594  0.07234646     0.27900
H2653       H  0.89957756  0.82927215  0.41830262     0.40700
H2654       H  0.48229893  0.76095593  0.28710556     0.30800
H2655       H  0.52682886  0.78838739  0.31677662     0.38400
H2656       H  0.96123294  0.70443203  0.06819305     0.30200
H2657       H  0.95271816  0.66797334  0.35285260     0.30300
H2658       H  0.56327995  0.67149330  0.45973409     0.30600
C2659       C  0.53129770  0.65015116  0.33242575     0.79800
N2660       N  0.52810290  0.62512615  0.35472766    -0.78500
C2661       C  0.52944420  0.59926381  0.33424927     0.82200
N2662       N  0.53433419  0.59848725  0.29143126    -0.78500
C2663       C  0.53830946  0.62339213  0.26905522     0.82300
N2664       N  0.53594316  0.64922801  0.28959983    -0.80200
C2665       C  0.55739137  0.64782442  0.15695361     0.02700
C2666       C  0.54867812  0.64829977  0.19980020    -0.13500
C2667       C  0.54500970  0.62246373  0.22278288     0.00200
C2668       C  0.54996309  0.59593898  0.20201401    -0.12000
C2669       C  0.55840178  0.59522263  0.15893761     0.02700
C2670       C  0.56184072  0.62124376  0.13625671    -0.11400
H2671       H  0.54608784  0.66904020  0.21560884     0.08300
H2672       H  0.54828589  0.57575783  0.21957071     0.05800
H2673       H  0.56995337  0.62086272  0.10374000     0.05600
C2674       C  0.56270954  0.52889924  0.08765233     0.02700
C2675       C  0.55300956  0.55494857  0.10584229    -0.13500
C2676       C  0.56773682  0.56758192  0.13999130     0.00200
C2677       C  0.59253272  0.55444295  0.15536967    -0.12000
C2678       C  0.60295356  0.52885921  0.13688499     0.02700
C2679       C  0.58759776  0.01559771  0.10348433    -0.11400
H2680       H  0.53399948  0.56537137  0.09342793     0.08300
H2681       H  0.60454572  0.56496126  0.18068953     0.05800
H2682       H  0.59579909  0.99621163  0.08828478     0.05600
C2683       C  0.89714535  0.96444725  0.29400690     0.02700
C2684       C  0.87192397  0.47734126  0.27854850    -0.13500
C2685       C  0.85636598  0.96364657  0.24580129     0.00200
C2686       C  0.86675533  0.93795904  0.22781308    -0.12000
C2687       C  0.89169765  0.92510281  0.24309040     0.02700
C2688       C  0.90676852  0.93817707  0.27649511    -0.11400
H2689       H  0.86376114  0.49687611  0.29338548     0.08300
H2690       H  0.85474105  0.92725636  0.20265449     0.05800
H2691       H  0.92601779  0.92806728  0.28862020     0.05600
Zr2692     Zr  0.92748459  0.97285559  0.43959908     2.17500
O2693       O  0.88722383  0.94097007  0.42403897    -0.51800
O2694       O  0.88634388  0.99804029  0.47109877    -0.75000
O2695       O  0.92411370  0.93279566  0.49030085    -0.81800
O2696       O  0.93061119  0.49771766  0.32105090    -0.83500
O2697       O  0.95372323  0.94293268  0.04601379    -0.79100
O2698       O  0.90996016  0.96551797  0.36675395    -0.90800
O2699       O  0.89993814  0.54402788  0.48675223    -0.76700
O2700       O  0.94403233  0.99893558  0.50046096    -0.86200
O2701       O  0.93305188  0.52189889  0.41674432    -0.85900
O2702       O  0.97226735  0.95014234  0.45829388    -0.72700
O2703       O  0.96202619  0.97210914  0.38276897    -0.84800
Zr2704     Zr  0.52955629  0.52623471  0.44246543     2.26400
Zr2705     Zr  0.98866949  0.97713402  0.01922460     2.06300
Zr2706     Zr  0.96831126  0.52128185  0.36128343     2.10000
Zr2707     Zr  0.95045590  0.54763856  0.47739281     1.78800
O2708       O  0.98353379  0.51004073  0.28856650    -0.93600
O2709       O  0.94155159  0.55599571  0.05333697    -0.41400
O2710       O  0.98523870  0.54840702  0.42152360    -0.78100
O2711       O  0.99447938  0.52681656  0.99895274    -0.96700
O2712       O  0.52410230  0.97696076  0.46384874    -0.90000
O2713       O  0.51330830  0.50056360  0.38073491    -0.92900
C2714       C  0.88130069  0.52393633  0.48416310     1.00900
C2715       C  0.91315605  0.97714971  0.32967111     1.13800
C2716       C  0.93469182  0.92749543  0.02738547     1.04600
O2717       O  0.97557603  0.98947584  0.09239282    -0.95000
O2718       O  0.52869580  0.99690124  0.05898296    -0.90800
O2719       O  0.54995435  0.52965383  0.01467409    -0.83900
C2720       C  0.54683331  0.51701273  0.05114436     1.11200
O2721       O  0.98960814  0.90578743  0.37443862    -0.97000
Zr2722     Zr  0.50694216  0.95174801  0.40249124     1.88900
O2723       O  0.57110402  0.50205796  0.41050198    -0.73700
O2724       O  0.51588771  0.93460725  0.04074722    -0.52900
O2725       O  0.52551275  0.91021811  0.44179634    -0.97600
O2726       O  0.51350937  0.94438900  0.32571972    -0.54800
O2727       O  0.55767275  0.95600510  0.39488935    -0.74200
C2728       C  0.57631271  0.97608790  0.39788013     0.98200
O2729       O  0.56811166  0.56018618  0.45804647    -0.63000
O2730       O  0.93816054  0.56155456  0.33912104    -0.57800
O2731       O  0.52978220  0.56816933  0.39443399    -0.94500
O2732       O  0.50221249  0.55706493  0.33683234    -0.92900
O2733       O  0.93206604  0.59038262  0.44102298    -0.93300
O2734       O  0.97247108  0.59195525  0.00349124    -0.92100
C2735       C  0.52038219  0.57297286  0.35642978     1.17000
H2736       H  0.91530030  0.52982958  0.40627002     0.32900
H2737       H  0.00010855  0.53854107  0.02307831     0.43800
H2738       H  0.52665801  0.50224160  0.35730938     0.37300
H2739       H  0.97073933  0.92975298  0.46477853     0.33800
H2740       H  0.92726189  0.57178242  0.05415827     0.25600
H2741       H  0.51231285  0.93279365  0.07191192     0.31500
H2742       H  0.54333484  0.90481156  0.42678159     0.37400
H2743       H  0.91893407  0.59936680  0.46201714     0.31900
H2744       H  0.94778881  0.57903064  0.35048778     0.30800
H2745       H  0.97330983  0.52412085  0.27022045     0.32500
H2746       H  0.53007125  0.95651705  0.31768269     0.31400
H2747       H  0.98976541  0.59433884  0.98562504     0.35400
H2748       H  0.57915138  0.56203339  0.43107295     0.28200
H2749       H  0.87580634  0.94015056  0.45071585     0.32400
H2750       H  0.50681450  0.89542371  0.36423045     0.35200
H2751       H  0.94077197  0.56278744  0.30770364     0.27900
H2752       H  0.55890775  0.57925905  0.96214554     0.40700
H2753       H  0.97535625  0.01091678  0.09294146     0.29200
H2754       H  0.93100428  0.53864407  0.06317441     0.38400
H2755       H  0.49692773  0.95406010  0.31226398     0.30200
H2756       H  0.50565114  0.91798427  0.02791844     0.30300
H2757       H  0.89541978  0.92131531  0.42088407     0.30600
C2758       C  0.90023638  0.84526030  0.22149209     0.02700
C2759       C  0.90868846  0.84596995  0.17841173    -0.13500
C2760       C  0.91365537  0.87249426  0.15762724     0.00200
C2761       C  0.91000674  0.89833583  0.18058650    -0.12000
C2762       C  0.90126777  0.89787880  0.22340646     0.02700
C2763       C  0.89680291  0.87130293  0.24413601    -0.11400
H2764       H  0.91034939  0.82578830  0.16085513     0.08300
H2765       H  0.91261320  0.91907228  0.16476892     0.05800
H2766       H  0.88867554  0.87094519  0.27664391     0.05600
C2767       C  0.92717877  0.90022547  0.04796310     0.79800
N2768       N  0.92258981  0.89928292  0.09079866    -0.78500
C2769       C  0.92030937  0.87343922  0.11134587     0.82200
N2770       N  0.92430741  0.84854910  0.08895660    -0.78500
C2771       C  0.92913739  0.84934475  0.04612532     0.82300
N2772       N  0.93040601  0.87521165  0.52564725    -0.80200
C2773       C  0.64707526  0.78177913  0.83629606     0.02700
C2774       C  0.65664192  0.80808897  0.85375138    -0.13500
C2775       C  0.64159696  0.82111445  0.88722718     0.00200
C2776       C  0.61670345  0.80819963  0.90256857    -0.12000
C2777       C  0.60634847  0.78249614  0.88459465     0.02700
C2778       C  0.62191169  0.76881765  0.85184001    -0.11400
H2779       H  0.67584592  0.81825045  0.84155979     0.08300
H2780       H  0.60468911  0.81887568  0.92775377     0.05800
H2781       H  0.61378484  0.74925208  0.83704741     0.05600
C2782       C  0.81275224  0.71736772  0.54274516     0.02700
C2783       C  0.83763068  0.73065860  0.52686099    -0.13500
C2784       C  0.85293509  0.71740646  0.99339717     0.00200
C2785       C  0.84246793  0.69184017  0.97490361    -0.12000
C2786       C  0.81767352  0.67871481  0.99032494     0.02700
C2787       C  0.80300220  0.69134347  0.02453531    -0.11400
H2788       H  0.84586384  0.75003049  0.54206155     0.08300
H2789       H  0.85444378  0.68132311  0.94954274     0.05800
H2790       H  0.78399335  0.68093615  0.53698265     0.05600
Zr2791     Zr  0.67751498  0.77344602  0.69073864     2.17500
O2792       O  0.63724995  0.80534793  0.70621171    -0.51800
O2793       O  0.63635807  0.74830933  0.65924638    -0.75000
O2794       O  0.67418073  0.81350634  0.64006831    -0.81800
O2795       O  0.68058501  0.74854772  0.80927283    -0.83500
O2796       O  0.70369131  0.80328739  0.58427211    -0.79100
O2797       O  0.65990094  0.78071153  0.76355090    -0.90800
O2798       O  0.64993223  0.70230867  0.64363483    -0.76700
O2799       O  0.69404437  0.74735621  0.62986838    -0.86200
O2800       O  0.68305424  0.72440160  0.71356834    -0.85900
O2801       O  0.72230548  0.79615031  0.67202534    -0.72700
O2802       O  0.71204664  0.77419289  0.74758127    -0.84800
Zr2803     Zr  0.77955562  0.72002759  0.68791261     2.26400
Zr2804     Zr  0.73868807  0.76913793  0.61109527     2.06300
Zr2805     Zr  0.71829537  0.72500394  0.76903707     2.10000
Zr2806     Zr  0.70045984  0.69865376  0.65292896     1.78800
O2807       O  0.73347005  0.73612164  0.84181590    -0.93600
O2808       O  0.69160016  0.69028286  0.57698427    -0.41400
O2809       O  0.73522716  0.69787157  0.70881299    -0.78100
O2810       O  0.74449803  0.71946151  0.63139584    -0.96700
O2811       O  0.77411425  0.76929616  0.66648312    -0.90000
O2812       O  0.76329858  0.74571738  0.74961521    -0.92900
C2813       C  0.63130095  0.72240946  0.64622318     1.00900
C2814       C  0.66310254  0.76908843  0.80063765     1.13800
C2815       C  0.68470568  0.81876333  0.60294146     1.04600
O2816       O  0.72557476  0.75673219  0.53795838    -0.95000
O2817       O  0.77875565  0.74937397  0.57141940    -0.90800
O2818       O  0.80001067  0.71662382  0.61573796    -0.83900
C2819       C  0.79689550  0.72926611  0.57926698     1.11200
O2820       O  0.73961318  0.84039397  0.75618776    -0.97000
Zr2821     Zr  0.75697779  0.79453129  0.72782735     1.88900
O2822       O  0.82107618  0.74411930  0.72009630    -0.73700
O2823       O  0.76588110  0.81163245  0.58936607    -0.52900
O2824       O  0.77537725  0.83613562  0.68850216    -0.97600
O2825       O  0.76381178  0.80182668  0.80456491    -0.54800
O2826       O  0.80774995  0.79030790  0.73499067    -0.74200
C2827       C  0.82634564  0.77015823  0.73234204     0.98200
O2828       O  0.81811409  0.68606210  0.67241599    -0.63000
O2829       O  0.68815573  0.68464209  0.79088948    -0.57800
O2830       O  0.77967135  0.67804798  0.73585345    -0.94500
O2831       O  0.75220628  0.68925178  0.79352050    -0.92900
O2832       O  0.68205091  0.65591283  0.68928501    -0.93300
O2833       O  0.72247824  0.65436283  0.62673049    -0.92100
C2834       C  0.77030879  0.67328577  0.77388941     1.17000
H2835       H  0.66529773  0.71648086  0.72403764     0.32900
H2836       H  0.75014216  0.70773751  0.60727863     0.43800
H2837       H  0.77663868  0.74403474  0.77305060     0.37300
H2838       H  0.72079207  0.81653913  0.66552948     0.33800
H2839       H  0.67704106  0.67475234  0.57616338     0.25600
H2840       H  0.76230027  0.81337696  0.55819414     0.31500
H2841       H  0.79341467  0.84134007  0.70308486     0.37400
H2842       H  0.66907015  0.64683550  0.66816851     0.31900
H2843       H  0.69807625  0.66715979  0.78012407     0.30800
H2844       H  0.72318652  0.72205148  0.86010360     0.32500
H2845       H  0.78037638  0.78966343  0.81246962     0.31400
H2846       H  0.73990181  0.65209446  0.64434330     0.35400
H2847       H  0.82906930  0.68412982  0.69945315     0.28200
H2848       H  0.62595625  0.80633716  0.67942915     0.32400
H2849       H  0.75684983  0.85086466  0.76603261     0.35200
H2850       H  0.69032391  0.68366514  0.82240172     0.27900
H2851       H  0.80889339  0.66701390  0.66815323     0.40700
H2852       H  0.72533438  0.73529177  0.53745722     0.30800
H2853       H  0.68137606  0.70779753  0.56701559     0.38400
H2854       H  0.74725509  0.79217904  0.81812947     0.30200
H2855       H  0.75563701  0.82827660  0.60212274     0.30300
H2856       H  0.64548048  0.82496389  0.70967621     0.30600
C2857       C  0.65114776  0.84833840  0.90693692     0.02700
C2858       C  0.65982733  0.84788387  0.94978836    -0.13500
C2859       C  0.66347233  0.87372859  0.47274568     0.00200
C2860       C  0.65852863  0.90024762  0.95194490    -0.12000
C2861       C  0.65014302  0.90095510  0.90883784     0.02700
C2862       C  0.64673754  0.87491394  0.88618169    -0.11400
H2863       H  0.66240835  0.82714886  0.96561968     0.08300
H2864       H  0.66017545  0.92043091  0.96949980     0.05800
H2865       H  0.63866534  0.87527427  0.85364353     0.05600
C2866       C  0.67716799  0.84602340  0.58236747     0.79800
N2867       N  0.67251239  0.84695832  0.53955092    -0.78500
C2868       C  0.67015199  0.87279929  0.51902042     0.82200
N2869       N  0.67414013  0.89769797  0.54140422    -0.78500
C2870       C  0.67902940  0.89690851  0.58422358     0.82300
N2871       N  0.68037290  0.87104016  0.60468350    -0.80200
C2872       C  0.64584489  0.96738271  0.83766097     0.02700
C2873       C  0.62096297  0.48067266  0.85352906    -0.13500
C2874       C  0.60558173  0.96735784  0.88685347     0.00200
C2875       C  0.61597963  0.94172649  0.90524375    -0.12000
C2876       C  0.64079001  0.92860262  0.88986918     0.02700
C2877       C  0.65553596  0.94129548  0.85577303    -0.11400
H2878       H  0.61277924  0.50009188  0.83839881     0.08300
H2879       H  0.60394875  0.93117344  0.93051317     0.05800
H2880       H  0.67455336  0.93089500  0.84334276     0.05600
C2881       C  0.81135454  0.53180502  0.54391164     0.02700
C2882       C  0.80180155  0.55815293  0.02653381    -0.13500
C2883       C  0.81688767  0.57125802  0.99314926     0.00200
C2884       C  0.84182211  0.55840660  0.97785769    -0.12000
C2885       C  0.85214287  0.53264382  0.99568607     0.02700
C2886       C  0.83654186  0.01888671  0.52834476    -0.11400
H2887       H  0.78257436  0.56827816  0.53870621     0.08300
H2888       H  0.85386271  0.56914664  0.95275896     0.05800
H2889       H  0.84465539  0.99928410  0.54304642     0.05600
Zr2890     Zr  0.78103521  0.52336420  0.68961120     2.17500
O2891       O  0.82147777  0.55501971  0.67412925    -0.51800
O2892       O  0.82211777  0.49824643  0.72138615    -0.75000
O2893       O  0.78433889  0.56355526  0.74014195    -0.81800
O2894       O  0.77784467  0.99850207  0.57091424    -0.83500
O2895       O  0.75481832  0.55335422  0.79593687    -0.79100
O2896       O  0.79853809  0.53062962  0.61668877    -0.90800
O2897       O  0.80858363  0.95220903  0.73681949    -0.76700
O2898       O  0.76450209  0.49729454  0.75050546    -0.86200
O2899       O  0.77546272  0.97430670  0.66680203    -0.85900
O2900       O  0.73625266  0.54609838  0.70825857    -0.72700
O2901       O  0.74651025  0.52406870  0.63275915    -0.84800
Zr2902     Zr  0.67896720  0.97000261  0.69244356     2.26400
Zr2903     Zr  0.71986961  0.51912364  0.76921462     2.06300
Zr2904     Zr  0.74022479  0.97488255  0.61131017     2.10000
Zr2905     Zr  0.75806123  0.94857976  0.72747625     1.78800
O2906       O  0.72465661  0.98587825  0.53867783    -0.93600
O2907       O  0.76684536  0.94011680  0.80343217    -0.41400
O2908       O  0.72328435  0.94778967  0.67157675    -0.78100
O2909       O  0.71403551  0.96943710  0.74894836    -0.96700
O2910       O  0.68443700  0.51928112  0.71381674    -0.90000
O2911       O  0.69523932  0.99564782  0.63072165    -0.92900
C2912       C  0.82719365  0.97233156  0.73433340     1.00900
C2913       C  0.79532275  0.51905229  0.57956346     1.13800
C2914       C  0.77379738  0.56883616  0.77726499     1.04600
O2915       O  0.73304625  0.50667111  0.84231940    -0.95000
O2916       O  0.67984023  0.49941617  0.80901104    -0.90800
O2917       O  0.65856484  0.96669310  0.76467092    -0.83900
C2918       C  0.66170190  0.97930949  0.80115839     1.11200
O2919       O  0.71902828  0.59035560  0.62421652    -0.97000
Zr2920     Zr  0.70159973  0.54447063  0.65243611     1.88900
O2921       O  0.63743687  0.99416344  0.66045803    -0.73700
O2922       O  0.69275247  0.56169571  0.79083917    -0.52900
O2923       O  0.68308008  0.58609991  0.69156891    -0.97600
O2924       O  0.69500295  0.55170925  0.57564853    -0.54800
O2925       O  0.65085260  0.54024011  0.64497767    -0.74200
C2926       C  0.63222163  0.52014258  0.64790275     0.98200
O2927       O  0.64037984  0.93607045  0.70795511    -0.63000
O2928       O  0.77045083  0.93458599  0.58945513    -0.57800
O2929       O  0.67858415  0.92811423  0.64429276    -0.94500
O2930       O  0.70647812  0.93894541  0.58691997    -0.92900
O2931       O  0.77667799  0.90577855  0.69150059    -0.93300
O2932       O  0.73586828  0.90434151  0.75352913    -0.92100
C2933       C  0.68813417  0.92318342  0.60640469     1.17000
H2934       H  0.79322174  0.96637904  0.65634857     0.32900
H2935       H  0.70838828  0.95772125  0.77307363     0.43800
H2936       H  0.68189096  0.99396374  0.60729439     0.37300
H2937       H  0.73775210  0.56649479  0.71471128     0.33800
H2938       H  0.78136408  0.92454574  0.80424959     0.25600
H2939       H  0.69664880  0.56370783  0.82189011     0.31500
H2940       H  0.66529729  0.59153475  0.67647267     0.37400
H2941       H  0.78990119  0.89698257  0.71254203     0.31900
H2942       H  0.76036447  0.91704578  0.59965565     0.30800
H2943       H  0.73482666  0.97176244  0.52032632     0.32500
H2944       H  0.67835701  0.53967360  0.56770518     0.31400
H2945       H  0.71921771  0.90138720  0.73450706     0.35400
H2946       H  0.62937187  0.93419742  0.68095586     0.28200
H2947       H  0.83277800  0.55591236  0.70091219     0.32400
H2948       H  0.70187490  0.60065839  0.61368011     0.35200
H2949       H  0.76862278  0.93388406  0.55787875     0.27900
H2950       H  0.64957401  0.91700027  0.71212757     0.40700
H2951       H  0.73242153  0.48524181  0.84317757     0.30800
H2952       H  0.77710025  0.95759550  0.81346623     0.38400
H2953       H  0.71151198  0.54190283  0.56220504     0.30200
H2954       H  0.70280258  0.57827179  0.77755205     0.30300
H2955       H  0.81336168  0.57468925  0.67072145     0.30600
C2956       C  0.78129795  0.59610865  0.79787679     0.79800
N2957       N  0.78588224  0.59703429  0.84072345    -0.78500
C2958       C  0.78816609  0.62287062  0.86129510     0.82200
N2959       N  0.78417084  0.64776942  0.83891744    -0.78500
C2960       C  0.77934255  0.64699297  0.79608373     0.82300
N2961       N  0.77808117  0.62113392  0.77558064    -0.80200
C2962       C  0.80730811  0.59846405  0.97339993     0.02700
C2963       C  0.81177457  0.62505122  0.99407413    -0.13500
C2964       C  0.80830192  0.65107193  0.97139974     0.00200
C2965       C  0.79980428  0.65034570  0.92834470    -0.12000
C2966       C  0.79485632  0.62381195  0.90758115     0.02700
C2967       C  0.79856556  0.59798011  0.93056476    -0.11400
H2968       H  0.81992414  0.62543768  0.52656933     0.08300
H2969       H  0.79809809  0.67052454  0.91078883     0.05800
H2970       H  0.79598641  0.57723706  0.91476066     0.05600
C2971       C  0.56142259  0.71443431  0.58636863     0.02700
C2972       C  0.58654947  0.72742539  0.60202418    -0.13500
C2973       C  0.60213636  0.71370956  0.63473555     0.00200
C2974       C  0.59181913  0.68795867  0.65259964    -0.12000
C2975       C  0.56694995  0.67503368  0.63720675     0.02700
C2976       C  0.55191625  0.68806073  0.60370885    -0.11400
H2977       H  0.59463974  0.74704251  0.58733638     0.08300
H2978       H  0.60383468  0.67726561  0.67776898     0.05800
H2979       H  0.53274589  0.67787136  0.59145232     0.05600
C2980       C  0.89581405  0.77887252  0.79273397     0.02700
C2981       C  0.90553083  0.80494984  0.77462498    -0.13500
C2982       C  0.89085132  0.81761482  0.74044380     0.00200
C2983       C  0.86606535  0.80448057  0.72499552    -0.12000
C2984       C  0.85562199  0.77886992  0.74340305     0.02700
C2985       C  0.87096129  0.76556721  0.77678621    -0.11400
H2986       H  0.92452636  0.81535919  0.78711286     0.08300
H2987       H  0.85408042  0.81501872  0.69966511     0.05800
H2988       H  0.86276038  0.74615183  0.79190670     0.05600
Zr2989     Zr  0.53100190  0.72282854  0.94073561     2.17500
O2990       O  0.57142577  0.69113828  0.95618084    -0.51800
O2991       O  0.57211096  0.74790736  0.90903224    -0.75000
O2992       O  0.53429625  0.68268866  0.89014296    -0.81800
O2993       O  0.52789843  0.74771173  0.55936320    -0.83500
O2994       O  0.50476875  0.69288108  0.83435336    -0.79100
O2995       O  0.54857244  0.71556151  0.51360550    -0.90800
O2996       O  0.55856580  0.79392294  0.89347375    -0.76700
O2997       O  0.51447743  0.74890134  0.87984276    -0.86200
O2998       O  0.52546589  0.77189603  0.96350709    -0.85900
O2999       O  0.98621810  0.70010614  0.92207971    -0.72700
O3000       O  0.99649333  0.72213060  0.49761328    -0.84800
Zr3001     Zr  0.92897147  0.77625931  0.93794213     2.26400
Zr3002     Zr  0.96983295  0.72710452  0.86113744     2.06300
Zr3003     Zr  0.99025297  0.77133640  0.51902409     2.10000
Zr3004     Zr  0.50805380  0.79761977  0.90283845     1.78800
O3005       O  0.97466447  0.76047588  0.59169413    -0.93600
O3006       O  0.51678786  0.80598365  0.82685114    -0.41400
O3007       O  0.97330694  0.79844083  0.95877267    -0.78100
O3008       O  0.96401377  0.77679416  0.88139888    -0.96700
O3009       O  0.93441460  0.72698244  0.91655096    -0.90000
O3010       O  0.94525229  0.75059233  0.99963904    -0.92900
C3011       C  0.57717996  0.77380835  0.89603379     1.00900
C3012       C  0.54537757  0.72716190  0.55071622     1.13800
C3013       C  0.52375975  0.67741155  0.85302093     1.04600
O3014       O  0.98301949  0.73953110  0.78802419    -0.95000
O3015       O  0.92977771  0.74682490  0.82141113    -0.90800
O3016       O  0.90853423  0.77958302  0.86573505    -0.83900
C3017       C  0.91165266  0.76694605  0.82925702     1.11200
O3018       O  0.96885939  0.65589893  0.50636272    -0.97000
Zr3019     Zr  0.95156594  0.70176576  0.97790321     1.88900
O3020       O  0.88746079  0.75214470  0.97006475    -0.73700
O3021       O  0.94267656  0.68455227  0.83955892    -0.52900
O3022       O  0.93316761  0.66008888  0.93874002    -0.97600
O3023       O  0.94477639  0.69458648  0.55466939    -0.54800
O3024       O  0.90079819  0.70596892  0.98500686    -0.74200
C3025       C  0.88220196  0.72611271  0.98233516     0.98200
O3026       O  0.89037835  0.81021219  0.92254936    -0.63000
O3027       O  0.52049363  0.81165423  0.54076441    -0.57800
O3028       O  0.92868453  0.81816975  0.98603708    -0.94500
O3029       O  0.95653271  0.80728070  0.54343128    -0.92900
O3030       O  0.52664183  0.84045588  0.93875620    -0.93300
O3031       O  0.48592390  0.84185410  0.87665455    -0.92100
C3032       C  0.93822440  0.82307554  0.52393438     1.17000
H3033       H  0.54323003  0.77981735  0.97394512     0.32900
H3034       H  0.95836550  0.78851128  0.85727509     0.43800
H3035       H  0.93191251  0.75228271  0.52307605     0.37300
H3036       H  0.98771580  0.67971095  0.91562018     0.33800
H3037       H  0.53147788  0.82138523  0.82597227     0.25600
H3038       H  0.94656595  0.68252746  0.80850805     0.31500
H3039       H  0.91504650  0.65500531  0.95318230     0.37400
H3040       H  0.53986645  0.84924079  0.91770722     0.31900
H3041       H  0.51038834  0.82918854  0.53058456     0.30800
H3042       H  0.98522752  0.77427262  0.61007582     0.32500
H3043       H  0.92808855  0.70659899  0.56249362     0.31400
H3044       H  0.96917865  0.84476069  0.89550561     0.35400
H3045       H  0.87942301  0.81211607  0.94959456     0.28200
H3046       H  0.58266954  0.69015630  0.92935082     0.32400
H3047       H  0.95163938  0.64556382  0.51658472     0.35200
H3048       H  0.51870849  0.81236611  0.57234647     0.27900
H3049       H  0.89957728  0.82927164  0.91830267     0.40700
H3050       H  0.48229893  0.76095596  0.78710542     0.30800
H3051       H  0.52682885  0.78838782  0.81677677     0.38400
H3052       H  0.96123292  0.70443230  0.56819320     0.30200
H3053       H  0.95271839  0.66797327  0.85285247     0.30300
H3054       H  0.56327982  0.67149317  0.95973434     0.30600
C3055       C  0.53129773  0.65015119  0.83242566     0.79800
N3056       N  0.52810294  0.62512619  0.85472762    -0.78500
C3057       C  0.52944426  0.59926384  0.83424926     0.82200
N3058       N  0.53433421  0.59848722  0.79143127    -0.78500
C3059       C  0.53830943  0.62339212  0.76905515     0.82300
N3060       N  0.53594312  0.64922799  0.78959973    -0.80200
C3061       C  0.55739149  0.64782440  0.65695361     0.02700
C3062       C  0.54867814  0.64829973  0.69980015    -0.13500
C3063       C  0.54500966  0.62246368  0.72278282     0.00200
C3064       C  0.54996304  0.59593896  0.70201396    -0.12000
C3065       C  0.55840181  0.59522263  0.65893761     0.02700
C3066       C  0.56184086  0.62124376  0.63625673    -0.11400
H3067       H  0.54608781  0.66904012  0.71560880     0.08300
H3068       H  0.54828581  0.57575780  0.71957063     0.05800
H3069       H  0.56995355  0.62086269  0.60374006     0.05600
C3070       C  0.56270948  0.52889925  0.58765236     0.02700
C3071       C  0.55300950  0.55494859  0.60584235    -0.13500
C3072       C  0.56773680  0.56758192  0.63999133     0.00200
C3073       C  0.59253269  0.55444295  0.65536970    -0.12000
C3074       C  0.60295350  0.52885919  0.63688504     0.02700
C3075       C  0.58759772  0.01559776  0.60348428    -0.11400
H3076       H  0.53399944  0.56537142  0.59342803     0.08300
H3077       H  0.60454571  0.56496127  0.68068953     0.05800
H3078       H  0.59579903  0.99621169  0.58828466     0.05600
C3079       C  0.89714531  0.96444729  0.79400698     0.02700
C3080       C  0.87192396  0.47734128  0.77854857    -0.13500
C3081       C  0.85636599  0.96364664  0.74580127     0.00200
C3082       C  0.86675535  0.93795912  0.72781304    -0.12000
C3083       C  0.89169764  0.92510287  0.74309046     0.02700
C3084       C  0.90676847  0.93817711  0.77649521    -0.11400
H3085       H  0.86376107  0.49687610  0.79338559     0.08300
H3086       H  0.85474110  0.92725646  0.70265440     0.05800
H3087       H  0.92601773  0.92806732  0.78862033     0.05600
Zr3088     Zr  0.92748459  0.97285563  0.93959910     2.17500
O3089       O  0.88722379  0.94097009  0.92403939    -0.51800
O3090       O  0.88634381  0.99804026  0.97109864    -0.75000
O3091       O  0.92411385  0.93279571  0.99030092    -0.81800
O3092       O  0.93061116  0.49771774  0.82105095    -0.83500
O3093       O  0.95372297  0.94293286  0.54601375    -0.79100
O3094       O  0.90996013  0.96551800  0.86675402    -0.90800
O3095       O  0.89993809  0.54402792  0.98675216    -0.76700
O3096       O  0.94403238  0.99893554  0.00046098    -0.86200
O3097       O  0.93305186  0.52189893  0.91674446    -0.85900
O3098       O  0.97226736  0.95014238  0.95829377    -0.72700
O3099       O  0.96202616  0.97210925  0.88276893    -0.84800
Zr3100     Zr  0.52955627  0.52623476  0.94246554     2.26400
Zr3101     Zr  0.98866942  0.97713404  0.51922462     2.06300
Zr3102     Zr  0.96831122  0.52128192  0.86128351     2.10000
Zr3103     Zr  0.95045590  0.54763852  0.97739300     1.78800
O3104       O  0.98353375  0.51004100  0.78856647    -0.93600
O3105       O  0.94155181  0.55599592  0.55333678    -0.41400
O3106       O  0.98523867  0.54840706  0.92152374    -0.78100
O3107       O  0.99447935  0.52681654  0.49895261    -0.96700
O3108       O  0.52410231  0.97696079  0.96384871    -0.90000
O3109       O  0.51330827  0.50056369  0.88073498    -0.92900
C3110       C  0.88130063  0.52393637  0.98416305     1.00900
C3111       C  0.91315603  0.97714976  0.82967118     1.13800
C3112       C  0.93469163  0.92749550  0.52738547     1.04600
O3113       O  0.97557579  0.98947604  0.59239269    -0.95000
O3114       O  0.52869572  0.99690124  0.55898304    -0.90800
O3115       O  0.54995429  0.52965378  0.51467407    -0.83900
C3116       C  0.54683326  0.51701270  0.55114436     1.11200
O3117       O  0.98960810  0.90578759  0.87443839    -0.97000
Zr3118     Zr  0.50694213  0.95174814  0.90249110     1.88900
O3119       O  0.57110402  0.50205798  0.91050212    -0.73700
O3120       O  0.51588754  0.93460729  0.54074743    -0.52900
O3121       O  0.52551270  0.91021815  0.94179590    -0.97600
O3122       O  0.51350944  0.94438930  0.82571952    -0.54800
O3123       O  0.55767272  0.95600517  0.89488921    -0.74200
C3124       C  0.57631270  0.97608795  0.89788012     0.98200
O3125       O  0.56811159  0.56018625  0.95804690    -0.63000
O3126       O  0.93816038  0.56155459  0.83912111    -0.57800
O3127       O  0.52978224  0.56816933  0.89443397    -0.94500
O3128       O  0.50221228  0.55706516  0.83683248    -0.92900
O3129       O  0.93206622  0.59038272  0.94102337    -0.93300
O3130       O  0.97247117  0.59195542  0.50349046    -0.92100
C3131       C  0.52038215  0.57297294  0.85642984     1.17000
H3132       H  0.91530028  0.52982962  0.90627017     0.32900
H3133       H  0.00010849  0.53854102  0.52307810     0.43800
H3134       H  0.52665799  0.50224172  0.85730949     0.37300
H3135       H  0.97073935  0.92975301  0.96477831     0.33800
H3136       H  0.92726189  0.57178280  0.55415804     0.25600
H3137       H  0.51231260  0.93279370  0.57191204     0.31500
H3138       H  0.54333497  0.90481166  0.92678109     0.37400
H3139       H  0.91893441  0.59936702  0.96201779     0.31900
H3140       H  0.94778859  0.57903068  0.85048795     0.30800
H3141       H  0.97330939  0.52412091  0.77022034     0.32500
H3142       H  0.53007080  0.95651713  0.81768266     0.31400
H3143       H  0.98976544  0.59433930  0.48562321     0.35400
H3144       H  0.57915134  0.56203355  0.93107336     0.28200
H3145       H  0.87580641  0.94015054  0.95071641     0.32400
H3146       H  0.50681449  0.89542389  0.86422992     0.35200
H3147       H  0.94077174  0.56278746  0.80770420     0.27900
H3148       H  0.55890780  0.57925915  0.46214503     0.40700
H3149       H  0.97535622  0.01091732  0.59294127     0.29200
H3150       H  0.93100458  0.53864440  0.56317435     0.38400
H3151       H  0.49692741  0.95406042  0.81226361     0.30200
H3152       H  0.50565084  0.91798420  0.52791855     0.30300
H3153       H  0.89541972  0.92131538  0.92088438     0.30600
C3154       C  0.90023638  0.84526036  0.72149221     0.02700
C3155       C  0.90868853  0.84596999  0.67841191    -0.13500
C3156       C  0.91365544  0.87249430  0.65762739     0.00200
C3157       C  0.91000685  0.89833589  0.68058666    -0.12000
C3158       C  0.90126779  0.89787887  0.72340655     0.02700
C3159       C  0.89680288  0.87130301  0.74413608    -0.11400
H3160       H  0.91034950  0.82578832  0.66085536     0.08300
H3161       H  0.91261340  0.91907233  0.66476911     0.05800
H3162       H  0.88867546  0.87094529  0.77664393     0.05600
C3163       C  0.92717870  0.90022553  0.54796320     0.79800
N3164       N  0.92258977  0.89928297  0.59079879    -0.78500
C3165       C  0.92030941  0.87343927  0.61134601     0.82200
N3166       N  0.92430751  0.84854915  0.58895676    -0.78500
C3167       C  0.92913741  0.84934481  0.54612544     0.82300
N3168       N  0.93040606  0.87521159  0.02564712    -0.80200
loop_ 
_geom_bond_atom_site_label_1 
_geom_bond_atom_site_label_2 
_geom_bond_distance 
_geom_bond_site_symmetry_2 
_ccdc_geom_bond_type 
C1            C2   1.405       .  A
C1            C6   1.409       .  A
C1           C42   1.465       .  S
C2            C3   1.397       .  A
C2            H7   1.084       .  S
C3            C4   1.395       .  A
C3           C85   1.469       .  S
C4            C5   1.399       .  A
C4            H8   1.085       .  S
C5            C6   1.406       .  A
C5          C239   1.469       .  S
C6            H9   1.084       .  S
C10          C11   1.408       .  A
C10         C411   1.405       .  A
C10          C47   1.468       .  S
C11         C408   1.407   1_554  A
C11          H16   1.083       .  S
C12          C13   1.403       .  A
C12         C407   1.407       .  A
C12         C253   1.471       .  S
C13          C14   1.397       .  A
C13          H17   1.085       .  S
C14          C15   1.398       .  A
C14         C192   1.473       .  S
C15         C406   1.405       .  A
C15         H414   1.085       .  S
H18         C411   1.085       .  S
Zr19         O20   2.443       .  S
Zr19         O21   2.457       .  S
Zr19         O22   2.438       .  S
Zr19         O25   2.441       .  S
Zr19         O27   2.379       .  S
Zr19         O28   2.388       .  S
Zr19         O29   2.419       .  S
Zr19         O30   2.402       .  S
O20          H76   0.991       .  S
O20          H84   0.990       .  S
O21          C41   1.285       .  A
O22          C43   1.283       .  A
O23         Zr33   2.426       .  S
O23          C42   1.282       .  A
O24         Zr32   2.425       .  S
O24          C43   1.282       .  A
O25          C42   1.285       .  A
O26         Zr34   2.393       .  S
O26          C41   1.277       .  A
O27         Zr32   2.395       .  S
O27         Zr34   2.380       .  S
O28         Zr33   2.394       .  S
O28         Zr34   2.379       .  S
O28          H63   0.966       .  S
O29         Zr32   2.400       .  S
O29         Zr49   2.384       .  S
O29          H66   0.965       .  S
O30         Zr33   2.385       .  S
O30         Zr49   2.387       .  S
Zr31         O56   2.442       .  S
Zr31         O50   2.457       .  S
Zr31         O58   2.448       .  S
Zr31         O46   2.454       .  S
Zr31         O37   2.407       .  S
Zr31         O38   2.411       .  S
Zr31         O39   2.384       .  S
Zr31         O40   2.387       .  S
Zr32         O51   2.436       .  S
Zr32         O44   2.433       .  S
Zr32         O45   2.428       .  S
Zr32         O38   2.395       .  S
Zr32         O39   2.398       .  S
Zr33         O35   2.435       .  S
Zr33         O57   2.436       .  S
Zr33         O59   2.416       .  S
Zr33         O37   2.394       .  S
Zr33         O40   2.395       .  S
Zr34         O60   2.434       .  S
Zr34         O61   2.432       .  S
Zr34         O36   2.438       .  S
Zr34         O37   2.388       .  S
Zr34         O38   2.374       .  S
O35          H72   0.990       .  S
O36          H67   0.990       .  S
O36          H81   0.990       .  S
O38          H64   0.964       .  S
O39         Zr49   2.381       .  S
O40         Zr49   2.372       .  S
O40          H65   0.966       .  S
C41         C201   1.470       .  S
C43          C94   1.456       .  S
O44          H80   0.990       .  S
O45          C47   1.283       .  A
O46          C47   1.288       .  A
O48         Zr49   2.435       .  S
O48          H77   0.991       .  S
Zr49         O52   2.437       .  S
Zr49         O53   2.440       .  S
Zr49         O54   2.399       .  S
O50          C55   1.285       .  A
O51          H68   0.991       .  S
O51          H83   0.990       .  S
O52          H69   0.990       .  S
O53          H73   0.990       .  S
O53          H82   0.990       .  S
O54          C55   1.278       .  A
C55         C212   1.472       .  S
O56          H75   0.992       .  S
O56          H79   0.989       .  S
O57          H71   0.990       .  S
O57          H78   0.990       .  S
O58          C62   1.285       .  A
O59          C62   1.280       .  A
O60          H70   0.990       .  S
O61          H74   0.990       .  S
C62         C188   1.460       .  S
C85          C86   1.398       .  A
C85          C90   1.403       .  A
C86         C483   1.402       .  A
C86          H91   1.084       .  S
C87         C482   1.402       .  A
C87         C484   1.405       .  A
C87          C96   1.479   1_556  S
C88          C89   1.402       .  A
C88         C483   1.405       .  A
C88          H92   1.084       .  S
C89          C90   1.404       .  A
C89         C104   1.474       .  S
C90          H93   1.084       .  S
C94          N95   1.355       .  A
C94          N99   1.357       .  A
N95          C96   1.359       .  A
C96          N97   1.358       .  A
N97          C98   1.357       .  A
C98         C161   1.460       .  S
C98          N99   1.356       .  A
C100        C105   1.406       .  A
C100        C893   1.408       .  A
C100        C146   1.468       .  S
C101        C892   1.408       .  A
C101        C894   1.407       .  A
C101        H106   1.083   1_565  S
C102        C103   1.403       .  A
C102        C893   1.407       .  A
C102        C352   1.471       .  S
C103        C104   1.397       .  A
C103        H107   1.085       .  S
C104        C105   1.398       .  A
C105        H108   1.085       .  S
C109        C506   1.405       .  A
C109        C906   1.409       .  A
C109        C141   1.466       .  S
C110        C111   1.397       .  A
C110        C505   1.405       .  A
C110        H511   1.084       .  S
C111        C112   1.395       .  A
C111        C190   1.469       .  S
C112        C113   1.399       .  A
C112        H116   1.085       .  S
C113       C1302   1.406       .  A
C113        C338   1.470       .  S
C114        C901   1.409       .  A
C114       C1301   1.406   1_554  A
C114        H117   1.084       .  S
H115        C506   1.084       .  S
Zr118       O119   2.442       .  S
Zr118       O120   2.457   1_545  S
Zr118       O121   2.440       .  S
Zr118       O124   2.443       .  S
Zr118       O126   2.380   1_545  S
Zr118       O128   2.419       .  S
Zr118       O129   2.402       .  S
Zr118       O919   2.388   1_545  S
O119        H175   0.991       .  S
O119        H183   0.990       .  S
O120        C932   1.285       .  A
O121        C142   1.283       .  A
O122       Zr132   2.427       .  S
O122        C933   1.282       .  A
O123       Zr131   2.425       .  S
O123        C142   1.282       .  A
O124        C141   1.285       .  A
O125       Zr133   2.393       .  S
O125        C140   1.277       .  A
O126       Zr131   2.395   1_565  S
O126       Zr925   2.380       .  S
O127       Zr132   2.394       .  S
O127       Zr133   2.380       .  S
O127       Zr910   2.388       .  S
O127        H162   0.966       .  S
O128       Zr131   2.400       .  S
O128       Zr148   2.384       .  S
O128        H165   0.965       .  S
O129       Zr148   2.387       .  S
O129       Zr924   2.386   1_545  S
Zr130       O155   2.442       .  S
Zr130       O149   2.456       .  S
Zr130       O157   2.449       .  S
Zr130       O145   2.454       .  S
Zr130       O136   2.407       .  S
Zr130       O137   2.412       .  S
Zr130       O139   2.386       .  S
Zr130       O930   2.384       .  S
Zr131       O150   2.436       .  S
Zr131       O143   2.433       .  S
Zr131       O144   2.428   1_545  S
Zr131       O138   2.398       .  S
Zr131       O929   2.395   1_545  S
Zr132       O134   2.435       .  S
Zr132       O156   2.436       .  S
Zr132       O158   2.416       .  S
Zr132       O136   2.395       .  S
Zr132       O139   2.395       .  S
Zr132       O921   2.386       .  S
Zr133       O159   2.435       .  S
Zr133       O160   2.432       .  S
Zr133       O135   2.438       .  S
Zr133       O136   2.389       .  S
Zr133       O137   2.374       .  S
Zr133       O918   2.380       .  S
O134        H171   0.990       .  S
O135        H166   0.990       .  S
O135        H180   0.990       .  S
O137       Zr923   2.395       .  S
O137        H163   0.964       .  S
O138       Zr148   2.381       .  S
O138       Zr922   2.384   1_545  S
O139       Zr940   2.372       .  S
O139        H164   0.966       .  S
C140        C309   1.470       .  S
C140        O912   1.285       .  A
C141        O914   1.282   1_545  A
C142        C184   1.457       .  S
O143        H179   0.990   1_545  S
O144        C938   1.283       .  A
O145        C146   1.288       .  A
C146        O936   1.283       .  A
O147       Zr148   2.435       .  S
O147        H176   0.991       .  S
Zr148       O151   2.437       .  S
Zr148       O152   2.440       .  S
Zr148       O153   2.399       .  S
Zr148       O931   2.372   1_545  S
O149        C946   1.285       .  A
O150        H167   0.991       .  S
O150        H182   0.990       .  S
O151        H168   0.990       .  S
O152        H172   0.990       .  S
O152        H181   0.990       .  S
O153        C154   1.278       .  A
C154        C302   1.471       .  S
C154        O941   1.285   1_545  A
O155        H174   0.992       .  S
O155        H178   0.989       .  S
O156        H170   0.990       .  S
O156        H177   0.990       .  S
O157        C161   1.285       .  A
O158        C161   1.280       .  A
O159        H169   0.990       .  S
O160        H173   0.990       .  S
C184        N185   1.355       .  A
C184        N189   1.357       .  A
N185        C186   1.359       .  A
C186        C194   1.479       .  S
C186        N187   1.358       .  A
N187        C188   1.357       .  A
C188        N189   1.356       .  A
C190        C191   1.402       .  A
C190        C195   1.399       .  A
C191        C192   1.404       .  A
C191        H592   1.084       .  S
C192        C193   1.402       .  A
C193        C194   1.405       .  A
C193        H197   1.084       .  S
C194        C195   1.402       .  A
C195        H198   1.084       .  S
H196        C587   1.084   1_554  S
C199        C200   1.409       .  A
C199        C204   1.405       .  A
C199        C240   1.466       .  S
C200        C201   1.406       .  A
C200        H205   1.084       .  S
C201        C202   1.399       .  A
C202        C203   1.395       .  A
C202        H206   1.086       .  S
C203        C204   1.397       .  A
C203        C289   1.469       .  S
C204        H207   1.084       .  S
C208        C209   1.406       .  A
C208        C213   1.408       .  A
C208        C245   1.468       .  S
C209        C210   1.398       .  A
C209        H214   1.085       .  S
C210        C211   1.397       .  A
C210        C382   1.474       .  S
C211        C212   1.403       .  A
C211        H215   1.085       .  S
C212        C213   1.407       .  A
C213        H216   1.083       .  S
Zr217       O218   2.442       .  S
Zr217       O219   2.457       .  S
Zr217       O220   2.440       .  S
Zr217       O619   2.442       .  S
Zr217       O225   2.379       .  S
Zr217       O226   2.388       .  S
Zr217      O1811   2.418   1_455  S
Zr217      O2208   2.402   1_455  S
O218        H274   0.991       .  S
O218        H282   0.990       .  S
O219        C239   1.285       .  A
O220        C241   1.283       .  A
O221      Zr1815   2.427   1_455  S
O221        C240   1.282       .  A
O222      Zr1814   2.425   1_455  S
O222        C241   1.282       .  A
O223       Zr613   2.442   1_554  S
O223        C240   1.285       .  A
O224       Zr232   2.392       .  S
O224        C239   1.277       .  A
O225       Zr232   2.380       .  S
O225      Zr1814   2.395   1_455  S
O226       Zr232   2.380       .  S
O226      Zr2211   2.394   1_455  S
O226        H261   0.966       .  S
O227       Zr230   2.400       .  S
O227       Zr247   2.384       .  S
O227      Zr1801   2.418       .  S
O227        H264   0.965       .  S
O228       Zr231   2.386   1_556  S
O228      Zr2197   2.402       .  S
O228       Zr643   2.387       .  S
Zr229       O254   2.442       .  S
Zr229       O248   2.456       .  S
Zr229       O256   2.449       .  S
Zr229       O244   2.454       .  S
Zr229       O235   2.407       .  S
Zr229       O236   2.411       .  S
Zr229       O237   2.384       .  S
Zr229       O238   2.387       .  S
Zr230       O249   2.436       .  S
Zr230       O242   2.433       .  S
Zr230       O243   2.428       .  S
Zr230      O1806   2.425       .  S
Zr230       O236   2.395       .  S
Zr230       O237   2.398       .  S
Zr230      O1809   2.395       .  S
Zr231       O233   2.435       .  S
Zr231      O1839   2.436       .  S
Zr231       O257   2.415       .  S
Zr231      O1805   2.427       .  S
Zr231      O2206   2.394   1_554  S
Zr231       O631   2.395   1_554  S
Zr231       O634   2.395   1_554  S
Zr232       O258   2.435       .  S
Zr232       O259   2.432   1_455  S
Zr232       O234   2.438       .  S
Zr232      O1819   2.388   1_455  S
Zr232      O1820   2.374   1_455  S
O233        H270   0.990       .  S
O234        H265   0.990       .  S
O234        H279   0.990       .  S
O235       Zr627   2.395       .  S
O235      Zr1816   2.388       .  S
O236      Zr1816   2.374       .  S
O236        H262   0.964       .  S
O237       Zr247   2.381       .  S
O238       Zr247   2.372       .  S
O238       Zr627   2.395       .  S
O238        H659   0.966       .  S
C241        C283   1.457       .  S
O242       H1862   0.990       .  S
O243        C245   1.283       .  A
O244        C245   1.288       .  A
O246       Zr643   2.435   1_554  S
O246        H275   0.991       .  S
Zr247       O250   2.437       .  S
Zr247       O642   2.435       .  S
Zr247       O647   2.440       .  S
Zr247       O252   2.399       .  S
Zr247       O624   2.387       .  S
O248        C253   1.285       .  A
O249        H266   0.991       .  S
O249        H281   0.990       .  S
O250        H267   0.990       .  S
O251       Zr643   2.440   1_554  S
O251        H271   0.990       .  S
O251        H280   0.990       .  S
O252        C253   1.277       .  A
O254        H273   0.992       .  S
O254        H277   0.989       .  S
O255      Zr1815   2.436   1_455  S
O255        H269   0.990       .  S
O255        H276   0.990       .  S
O256        C656   1.285       .  A
O257        C260   1.280       .  A
O258        H268   0.990       .  S
O259       H1856   0.990       .  S
C260        C395   1.460       .  S
C260        O652   1.285   1_554  A
H263        O634   0.966   1_554  S
H272       O1843   0.990       .  S
H278       O1826   0.990       .  S
C283        N284   1.357       .  A
C283        N288   1.355       .  A
N284        C285   1.356       .  A
C285        C359   1.460       .  S
C285        N286   1.357       .  A
N286        C287   1.358       .  A
C287        C291   1.479       .  S
C287        N288   1.359       .  A
C289        C290   1.399       .  A
C289        C294   1.402       .  A
C290        C291   1.402       .  A
C290        H295   1.084       .  S
C291        C292   1.405       .  A
C292        C293   1.402       .  A
C292        H296   1.084       .  S
C293        C294   1.404       .  A
C293        C300   1.473       .  S
C294        H297   1.084       .  S
C298        C299   1.405       .  A
C298       C1095   1.408       .  A
C298        C344   1.468       .  S
C299        C300   1.398       .  A
C299        H304   1.085       .  S
C300        C301   1.396       .  A
C301        C302   1.402       .  A
C301        H305   1.085       .  S
C302       C1095   1.407       .  A
C303       C1090   1.408       .  A
C303       C1094   1.407       .  A
C303        H306   1.083       .  S
C307        C312   1.405       .  A
C307       C1100   1.409       .  A
C307        C339   1.465       .  S
C308       C1099   1.409       .  A
C308       C1101   1.406       .  A
C308        H313   1.084       .  S
C309        C310   1.400       .  A
C309       C1100   1.406       .  A
C310        C311   1.395       .  A
C310        H314   1.085       .  S
C311        C312   1.397       .  A
C311        C386   1.469       .  S
C312        H315   1.084       .  S
Zr316       O317   2.443       .  S
Zr316       O318   2.458       .  S
Zr316       O319   2.439       .  S
Zr316       O322   2.441       .  S
Zr316       O324   2.379       .  S
Zr316       O326   2.418       .  S
Zr316       O327   2.402       .  S
Zr316      O1117   2.388       .  S
O317        H373   0.991       .  S
O317        H381   0.990       .  S
O318       C1130   1.285       .  A
O319        C736   1.283       .  A
O320       Zr330   2.426   1_565  S
O320       C1131   1.282       .  A
O321       Zr329   2.424       .  S
O321        C340   1.282       .  A
O322        C339   1.285       .  A
O323       Zr331   2.392       .  S
O323        C338   1.277       .  A
O324       Zr725   2.395       .  S
O324      Zr1123   2.380       .  S
O325       Zr330   2.394       .  S
O325       Zr331   2.379       .  S
O325      Zr1108   2.388   1_545  S
O325        H360   0.966       .  S
O326       Zr725   2.400       .  S
O326      Zr1930   2.384       .  S
O326        H363   0.965       .  S
O327      Zr1122   2.385       .  S
O327      Zr1930   2.387       .  S
Zr328       O353   2.442       .  S
Zr328       O347   2.457       .  S
Zr328       O355   2.449       .  S
Zr328       O739   2.454       .  S
Zr328       O337   2.387       .  S
Zr328      O1918   2.407   1_455  S
Zr328      O2315   2.411   1_455  S
Zr328      O1128   2.384   1_545  S
Zr329       O341   2.433       .  S
Zr329      O1932   2.436       .  S
Zr329      O1926   2.428       .  S
Zr329       O720   2.395       .  S
Zr329       O722   2.400   1_554  S
Zr329      O1127   2.395   1_554  S
Zr329      O2316   2.397   1_554  S
Zr330       O332   2.435       .  S
Zr330       O354   2.436       .  S
Zr330      O1940   2.416       .  S
Zr330       O334   2.395       .  S
Zr330      O1119   2.385   1_545  S
Zr330      O1921   2.395       .  S
Zr331       O357   2.434       .  S
Zr331       O754   2.432       .  S
Zr331       O729   2.438       .  S
Zr331       O334   2.388       .  S
Zr331      O1116   2.380   1_545  S
Zr331       O731   2.374       .  S
O332        H369   0.990       .  S
O333       Zr727   2.438   1_554  S
O333        H364   0.990       .  S
O333        H378   0.990       .  S
O334      Zr1912   2.407       .  S
O335      Zr2308   2.411       .  S
O335      Zr1121   2.395   1_546  S
O335       Zr727   2.374       .  S
O335        H361   0.964   1_556  S
O336       Zr346   2.381       .  S
O336      Zr1120   2.384       .  S
O336      Zr2309   2.397   1_455  S
O337      Zr1914   2.395   1_455  S
O337      Zr1138   2.372   1_545  S
O337        H362   0.966       .  S
C338       O1110   1.285   1_545  A
C339       O1112   1.282       .  A
C340        C391   1.456       .  S
C340        O715   1.283   1_554  A
O341        H377   0.990       .  S
O342      Zr1913   2.428   1_455  S
O342       C1136   1.283       .  A
O343       Zr724   2.454   1_554  S
O343        C344   1.288       .  A
C344       O1134   1.283   1_545  A
O345      Zr1930   2.435       .  S
O345       H1958   0.991       .  S
Zr346       O349   2.437       .  S
Zr346       O350   2.440       .  S
Zr346      O1929   2.435   1_455  S
Zr346       O351   2.399       .  S
Zr346      O1910   2.384   1_455  S
Zr346      O1911   2.387   1_455  S
Zr346      O1129   2.372       .  S
O347       C1144   1.285   1_545  A
O348      Zr1913   2.436   1_455  S
O348        H365   0.991       .  S
O348        H380   0.990       .  S
O349        H366   0.990       .  S
O350        H370   0.990       .  S
O350        H379   0.990   1_455  S
O351        C352   1.278       .  A
C352       O1139   1.285       .  A
O353        H372   0.992       .  S
O353        H772   0.989       .  S
O354        H368   0.990       .  S
O354        H375   0.990       .  S
O355        C359   1.285       .  A
O356      Zr1914   2.416   1_455  S
O356        C359   1.280       .  A
O357        H367   0.990       .  S
O358       Zr727   2.432   1_554  S
O358        H371   0.990   1_554  S
H374       O1929   0.991   1_455  S
H376        O749   0.989       .  S
C382        C383   1.402       .  A
C382        C387   1.404       .  A
C383        C384   1.405       .  A
C383        H388   1.084       .  S
C384        C385   1.402       .  A
C384        C393   1.479       .  S
C385        C386   1.398       .  A
C385        H389   1.084       .  S
C386        C387   1.403       .  A
C387        H390   1.084       .  S
C391        N392   1.355       .  A
C391        N792   1.357       .  A
N392        C393   1.359       .  A
C393        N394   1.358       .  A
N394        C395   1.356       .  A
C395        N792   1.356       .  A
N396        C787   1.357       .  A
N396        C791   1.356       .  A
C397        C398   1.405       .  A
C397        C402   1.409       .  A
C397        C438   1.465       .  S
C398        C399   1.397       .  A
C398        H403   1.084       .  S
C399        C400   1.395       .  A
C399        C481   1.469       .  S
C400        C401   1.399       .  A
C400        H404   1.085       .  S
C401        C402   1.406       .  A
C401        C635   1.469       .  S
C402        H405   1.084       .  S
C406        C407   1.408       .  A
C406        C443   1.468       .  S
C407        H412   1.083       .  S
C408        C409   1.403       .  A
C408        C649   1.471       .  S
C409        C410   1.397       .  A
C409        H413   1.085       .  S
C410        C411   1.398   1_556  A
C410        C588   1.473       .  S
Zr415       O416   2.443       .  S
Zr415       O417   2.457       .  S
Zr415       O418   2.438       .  S
Zr415       O421   2.441       .  S
Zr415       O423   2.379       .  S
Zr415       O424   2.388       .  S
Zr415       O425   2.419       .  S
Zr415       O426   2.402       .  S
O416        H472   0.991       .  S
O416        H480   0.990       .  S
O417        C437   1.285       .  A
O418        C439   1.283       .  A
O419       Zr429   2.426       .  S
O419        C438   1.282       .  A
O420       Zr428   2.425       .  S
O420        C439   1.282       .  A
O421        C438   1.285       .  A
O422       Zr430   2.393       .  S
O422        C437   1.277       .  A
O423       Zr428   2.395       .  S
O423       Zr430   2.380       .  S
O424       Zr429   2.394       .  S
O424       Zr430   2.379       .  S
O424        H459   0.966       .  S
O425       Zr428   2.400       .  S
O425       Zr445   2.384       .  S
O425        H462   0.965       .  S
O426       Zr429   2.385       .  S
O426       Zr445   2.387       .  S
Zr427       O452   2.442       .  S
Zr427       O446   2.457       .  S
Zr427       O454   2.448       .  S
Zr427       O442   2.454       .  S
Zr427       O433   2.407       .  S
Zr427       O434   2.411       .  S
Zr427       O435   2.384       .  S
Zr427       O436   2.387       .  S
Zr428       O447   2.436       .  S
Zr428       O440   2.433       .  S
Zr428       O441   2.428       .  S
Zr428       O434   2.395       .  S
Zr428       O435   2.398       .  S
Zr429       O431   2.435       .  S
Zr429       O453   2.436       .  S
Zr429       O455   2.416       .  S
Zr429       O433   2.394       .  S
Zr429       O436   2.395       .  S
Zr430       O456   2.434       .  S
Zr430       O457   2.432       .  S
Zr430       O432   2.438       .  S
Zr430       O433   2.388       .  S
Zr430       O434   2.374       .  S
O431        H468   0.990       .  S
O432        H463   0.990       .  S
O432        H477   0.990       .  S
O434        H460   0.964       .  S
O435       Zr445   2.381       .  S
O436       Zr445   2.372       .  S
O436        H461   0.966       .  S
C437        C597   1.470       .  S
C439        C490   1.456       .  S
O440        H476   0.990       .  S
O441        C443   1.283       .  A
O442        C443   1.288       .  A
O444       Zr445   2.435       .  S
O444        H473   0.991       .  S
Zr445       O448   2.437       .  S
Zr445       O449   2.440       .  S
Zr445       O450   2.399       .  S
O446        C451   1.285       .  A
O447        H464   0.991       .  S
O447        H479   0.990       .  S
O448        H465   0.990       .  S
O449        H469   0.990       .  S
O449        H478   0.990       .  S
O450        C451   1.278       .  A
C451        C608   1.472       .  S
O452        H471   0.992       .  S
O452        H475   0.989       .  S
O453        H467   0.990       .  S
O453        H474   0.990       .  S
O454        C458   1.285       .  A
O455        C458   1.280       .  A
O456        H466   0.990       .  S
O457        H470   0.990       .  S
C458        C584   1.460       .  S
C481        C482   1.398       .  A
C481        C486   1.403       .  A
C482        H487   1.084       .  S
C483        C492   1.479       .  S
C484        C485   1.402       .  A
C484        H488   1.084       .  S
C485        C486   1.404       .  A
C485        C500   1.474       .  S
C486        H489   1.084       .  S
C490        N491   1.355       .  A
C490        N495   1.357       .  A
N491        C492   1.359       .  A
C492        N493   1.358       .  A
N493        C494   1.357       .  A
C494        C557   1.460       .  S
C494        N495   1.356       .  A
C496       C1289   1.408       .  A
C496        C501   1.406       .  A
C496        C542   1.468       .  S
C497       C1288   1.408       .  A
C497       C1290   1.407       .  A
C497        H502   1.083   1_565  S
C498       C1289   1.407       .  A
C498        C499   1.403       .  A
C498        C748   1.471       .  S
C499        C500   1.397       .  A
C499        H503   1.085       .  S
C500        C501   1.398       .  A
C501        H504   1.085       .  S
C505       C1302   1.409       .  A
C505        C537   1.466       .  S
C506        C507   1.397   1_554  A
C507        C508   1.395       .  A
C507        C586   1.469       .  S
C508        C509   1.399       .  A
C508        H512   1.085       .  S
C509        C906   1.406   1_556  A
C509        C734   1.470       .  S
C510       C1297   1.409       .  A
C510        C905   1.406       .  A
C510        H513   1.084       .  S
Zr514       O515   2.442       .  S
Zr514       O516   2.457   1_545  S
Zr514       O517   2.440       .  S
Zr514       O520   2.443       .  S
Zr514       O522   2.380   1_545  S
Zr514      O1315   2.388   1_545  S
Zr514       O524   2.419       .  S
Zr514       O525   2.402       .  S
O515        H571   0.991       .  S
O515        H579   0.990       .  S
O516       C1328   1.285       .  A
O517        C538   1.283       .  A
O518       Zr528   2.427       .  S
O518       C1329   1.282       .  A
O519       Zr527   2.425       .  S
O519        C538   1.282       .  A
O520        C537   1.285       .  A
O521       Zr529   2.393       .  S
O521        C536   1.277       .  A
O522       Zr527   2.395   1_565  S
O522      Zr1321   2.380       .  S
O523      Zr1306   2.388       .  S
O523       Zr528   2.394       .  S
O523       Zr529   2.380       .  S
O523        H558   0.966       .  S
O524       Zr527   2.400       .  S
O524       Zr544   2.384       .  S
O524        H561   0.965       .  S
O525      Zr1320   2.386   1_545  S
O525       Zr544   2.387       .  S
Zr526       O551   2.442       .  S
Zr526       O545   2.456       .  S
Zr526       O553   2.449       .  S
Zr526       O541   2.454       .  S
Zr526       O532   2.407       .  S
Zr526       O533   2.412       .  S
Zr526      O1326   2.384       .  S
Zr526       O535   2.386       .  S
Zr527       O546   2.436       .  S
Zr527       O539   2.433       .  S
Zr527       O540   2.428   1_545  S
Zr527      O1325   2.395   1_545  S
Zr527       O534   2.398       .  S
Zr528       O530   2.435       .  S
Zr528       O552   2.436       .  S
Zr528       O554   2.416       .  S
Zr528      O1317   2.386       .  S
Zr528       O532   2.395       .  S
Zr528       O535   2.395       .  S
Zr529       O555   2.435       .  S
Zr529       O556   2.432       .  S
Zr529       O531   2.438       .  S
Zr529      O1314   2.380       .  S
Zr529       O532   2.389       .  S
Zr529       O533   2.374       .  S
O530        H567   0.990       .  S
O531        H562   0.990       .  S
O531        H576   0.990       .  S
O533      Zr1319   2.395       .  S
O533        H559   0.964       .  S
O534      Zr1318   2.384   1_545  S
O534       Zr544   2.381       .  S
O535      Zr1336   2.372       .  S
O535        H560   0.966       .  S
C536        C705   1.470       .  S
C536       O1308   1.285       .  A
C537       O1310   1.282   1_545  A
C538        C580   1.457       .  S
O539        H575   0.990   1_545  S
O540       C1334   1.283       .  A
O541        C542   1.288       .  A
C542       O1332   1.283       .  A
O543       Zr544   2.435       .  S
O543        H572   0.991       .  S
Zr544       O547   2.437       .  S
Zr544       O548   2.440       .  S
Zr544       O549   2.399       .  S
Zr544      O1327   2.372   1_545  S
O545       C1342   1.285       .  A
O546        H563   0.991       .  S
O546        H578   0.990       .  S
O547        H564   0.990       .  S
O548        H568   0.990       .  S
O548        H577   0.990       .  S
O549        C550   1.278       .  A
C550        C698   1.471       .  S
C550       O1337   1.285   1_545  A
O551        H570   0.992       .  S
O551        H574   0.989       .  S
O552        H566   0.990       .  S
O552        H573   0.990       .  S
O553        C557   1.285       .  A
O554        C557   1.280       .  A
O555        H565   0.990       .  S
O556        H569   0.990       .  S
C580        N581   1.355       .  A
C580        N585   1.357       .  A
N581        C582   1.359       .  A
C582        C590   1.479       .  S
C582        N583   1.358       .  A
N583        C584   1.357       .  A
C584        N585   1.356       .  A
C586        C587   1.402       .  A
C586        C591   1.399       .  A
C587        C588   1.404       .  A
C588        C589   1.402       .  A
C589        C590   1.405       .  A
C589        H593   1.084       .  S
C590        C591   1.402       .  A
C591        H594   1.084       .  S
C595        C596   1.409       .  A
C595        C600   1.405       .  A
C595        C636   1.466       .  S
C596        C597   1.406       .  A
C596        H601   1.084       .  S
C597        C598   1.399       .  A
C598        C599   1.395       .  A
C598        H602   1.086       .  S
C599        C600   1.397       .  A
C599        C685   1.469       .  S
C600        H603   1.084       .  S
C604        C605   1.406       .  A
C604        C609   1.408       .  A
C604        C641   1.468       .  S
C605        C606   1.398       .  A
C605        H610   1.085       .  S
C606        C607   1.397       .  A
C606        C778   1.474       .  S
C607        C608   1.403       .  A
C607        H611   1.085       .  S
C608        C609   1.407       .  A
C609        H612   1.083       .  S
Zr613       O614   2.442       .  S
Zr613       O615   2.457       .  S
Zr613       O616   2.440       .  S
Zr613       O621   2.379       .  S
Zr613       O622   2.388       .  S
Zr613      O2207   2.418   1_455  S
Zr613      O1812   2.402   1_455  S
O614        H670   0.991       .  S
O614        H678   0.990       .  S
O615        C635   1.285       .  A
O616        C637   1.283       .  A
O617      Zr2211   2.427   1_455  S
O617        C636   1.282       .  A
O618      Zr2210   2.425   1_455  S
O618        C637   1.282       .  A
O619        C636   1.285       .  A
O620       Zr628   2.392       .  S
O620        C635   1.277       .  A
O621      Zr2210   2.395   1_455  S
O621       Zr628   2.380       .  S
O622      Zr1815   2.394   1_456  S
O622       Zr628   2.380       .  S
O622        H657   0.966       .  S
O623      Zr2197   2.418       .  S
O623       Zr626   2.400       .  S
O623       Zr643   2.384       .  S
O623        H660   0.965       .  S
O624      Zr1801   2.402       .  S
O624       Zr627   2.386       .  S
Zr625       O650   2.442       .  S
Zr625       O644   2.456       .  S
Zr625       O652   2.449       .  S
Zr625       O640   2.454       .  S
Zr625       O631   2.407       .  S
Zr625       O632   2.411       .  S
Zr625       O633   2.384       .  S
Zr625       O634   2.387       .  S
Zr626       O645   2.436       .  S
Zr626       O638   2.433       .  S
Zr626      O2202   2.425       .  S
Zr626       O639   2.428       .  S
Zr626      O2205   2.395       .  S
Zr626       O632   2.395       .  S
Zr626       O633   2.398       .  S
Zr627       O629   2.435       .  S
Zr627      O2235   2.436       .  S
Zr627      O2201   2.427       .  S
Zr627       O653   2.415       .  S
Zr627      O1810   2.394       .  S
Zr628       O654   2.435       .  S
Zr628       O655   2.432   1_455  S
Zr628       O630   2.438       .  S
Zr628      O2215   2.388   1_455  S
Zr628      O2216   2.374   1_455  S
O629        H666   0.990       .  S
O630        H661   0.990       .  S
O630        H675   0.990       .  S
O631      Zr2212   2.388       .  S
O632      Zr2212   2.374       .  S
O632        H658   0.964       .  S
O633       Zr643   2.381       .  S
O634       Zr643   2.372       .  S
C637        C679   1.457       .  S
O638       H2258   0.990       .  S
O639        C641   1.283       .  A
O640        C641   1.288       .  A
O642        H671   0.991       .  S
Zr643       O646   2.437       .  S
Zr643       O648   2.399       .  S
O644        C649   1.285       .  A
O645        H662   0.991       .  S
O645        H677   0.990       .  S
O646        H663   0.990       .  S
O647        H667   0.990       .  S
O647        H676   0.990       .  S
O648        C649   1.277       .  A
O650        H669   0.992       .  S
O650        H673   0.989       .  S
O651      Zr2211   2.436   1_455  S
O651        H665   0.990       .  S
O651        H672   0.990       .  S
O653        C656   1.280       .  A
O654        H664   0.990       .  S
O655       H2252   0.990       .  S
C656        C791   1.460       .  S
H668       O2239   0.990       .  S
H674       O2222   0.990       .  S
C679        N680   1.357       .  A
C679        N684   1.355       .  A
N680        C681   1.356       .  A
C681        C755   1.460       .  S
C681        N682   1.357       .  A
N682        C683   1.358       .  A
C683        C687   1.479       .  S
C683        N684   1.359       .  A
C685        C686   1.399       .  A
C685        C690   1.402       .  A
C686        C687   1.402       .  A
C686        H691   1.084       .  S
C687        C688   1.405       .  A
C688        C689   1.402       .  A
C688        H692   1.084       .  S
C689        C690   1.404       .  A
C689        C696   1.473       .  S
C690        H693   1.084       .  S
C694        C695   1.405       .  A
C694       C1491   1.408       .  A
C694        C740   1.468       .  S
C695        C696   1.398       .  A
C695        H700   1.085       .  S
C696        C697   1.396       .  A
C697        C698   1.402       .  A
C697        H701   1.085       .  S
C698       C1491   1.407       .  A
C699       C1486   1.408       .  A
C699       C1490   1.407       .  A
C699        H702   1.083       .  S
C703       C1496   1.409       .  A
C703        C708   1.405       .  A
C703        C735   1.465       .  S
C704       C1495   1.409       .  A
C704       C1497   1.406       .  A
C704        H709   1.084       .  S
C705       C1496   1.406       .  A
C705        C706   1.400       .  A
C706        C707   1.395       .  A
C706        H710   1.085       .  S
C707        C708   1.397       .  A
C707        C782   1.469       .  S
C708        H711   1.084       .  S
Zr712       O713   2.443       .  S
Zr712       O714   2.458       .  S
Zr712       O715   2.439       .  S
Zr712       O718   2.441       .  S
Zr712       O720   2.379   1_556  S
Zr712      O1513   2.388       .  S
Zr712       O722   2.418       .  S
Zr712       O723   2.402       .  S
O713        H769   0.991       .  S
O713        H777   0.990       .  S
O714       C1526   1.285       .  A
O716       Zr726   2.426   1_565  S
O716       C1527   1.282       .  A
O717       Zr725   2.424       .  S
O717        C736   1.282       .  A
O718        C735   1.285       .  A
O719       Zr727   2.392       .  S
O719        C734   1.277       .  A
O720      Zr1519   2.380   1_554  S
O721      Zr1504   2.388   1_545  S
O721       Zr726   2.394       .  S
O721       Zr727   2.379       .  S
O721        H756   0.966       .  S
O722      Zr2326   2.384       .  S
O722        H759   0.965       .  S
O723      Zr1518   2.385       .  S
O723      Zr2326   2.387       .  S
Zr724       O749   2.442       .  S
Zr724       O743   2.457       .  S
Zr724       O751   2.449       .  S
Zr724      O2314   2.407   1_455  S
Zr724      O1919   2.411   1_455  S
Zr724      O1524   2.384   1_545  S
Zr724       O733   2.387       .  S
Zr725      O2328   2.436       .  S
Zr725       O737   2.433       .  S
Zr725      O2322   2.428       .  S
Zr725      O1523   2.395       .  S
Zr725      O1920   2.397       .  S
Zr726       O728   2.435       .  S
Zr726       O750   2.436       .  S
Zr726      O2336   2.416       .  S
Zr726      O1515   2.385   1_545  S
Zr726       O730   2.395       .  S
Zr726      O2317   2.395       .  S
Zr727       O753   2.434       .  S
Zr727      O1512   2.380   1_546  S
Zr727       O730   2.388       .  S
O728        H765   0.990       .  S
O729        H760   0.990       .  S
O729        H774   0.990       .  S
O730      Zr2308   2.407       .  S
O731      Zr1912   2.411       .  S
O731      Zr1517   2.395   1_545  S
O731        H757   0.964       .  S
O732      Zr1516   2.384       .  S
O732      Zr1913   2.397   1_456  S
O732       Zr742   2.381       .  S
O733      Zr2310   2.395   1_455  S
O733      Zr1534   2.372   1_545  S
O733        H758   0.966       .  S
C734       O1506   1.285   1_545  A
C735       O1508   1.282       .  A
C736        C787   1.456       .  S
O737        H773   0.990       .  S
O738      Zr2309   2.428   1_455  S
O738       C1532   1.283       .  A
O739        C740   1.288       .  A
C740       O1530   1.283   1_545  A
O741      Zr2326   2.435       .  S
O741       H2354   0.991       .  S
Zr742      O2325   2.435   1_455  S
Zr742       O745   2.437       .  S
Zr742       O746   2.440       .  S
Zr742       O747   2.399       .  S
Zr742      O2306   2.384   1_455  S
Zr742      O2307   2.387   1_455  S
Zr742      O1525   2.372       .  S
O743       C1540   1.285   1_545  A
O744      Zr2309   2.436   1_455  S
O744        H761   0.991       .  S
O744        H776   0.990       .  S
O745        H762   0.990       .  S
O746        H766   0.990       .  S
O746        H775   0.990   1_455  S
O747        C748   1.278       .  A
C748       O1535   1.285       .  A
O749        H768   0.992       .  S
O750        H764   0.990       .  S
O750        H771   0.990       .  S
O751        C755   1.285       .  A
O752      Zr2310   2.416   1_455  S
O752        C755   1.280       .  A
O753        H763   0.990       .  S
O754        H767   0.990       .  S
H770       O2325   0.991   1_455  S
C778        C779   1.402       .  A
C778        C783   1.404       .  A
C779        C780   1.405       .  A
C779        H784   1.084       .  S
C780        C781   1.402       .  A
C780        C789   1.479       .  S
C781        C782   1.398       .  A
C781        H785   1.084       .  S
C782        C783   1.403       .  A
C783        H786   1.084       .  S
C787        N788   1.355       .  A
N788        C789   1.359       .  A
C789        N790   1.358       .  A
N790        C791   1.356       .  A
C793        C794   1.405       .  A
C793        C798   1.409       .  A
C793        C834   1.465       .  S
C794        C795   1.397       .  A
C794        H799   1.084       .  S
C795        C796   1.395       .  A
C795        C877   1.469       .  S
C796        C797   1.399       .  A
C796        H800   1.085       .  S
C797        C798   1.406       .  A
C797       C1031   1.469       .  S
C798        H801   1.084       .  S
C802        C803   1.408       .  A
C802       C1203   1.405       .  A
C802        C839   1.468       .  S
C803       C1200   1.407   1_554  A
C803        H808   1.083       .  S
C804       C1199   1.407       .  A
C804        C805   1.403       .  A
C804       C1045   1.471       .  S
C805        C806   1.397       .  A
C805        H809   1.085       .  S
C806        C807   1.398       .  A
C806        C984   1.473       .  S
C807       C1198   1.405       .  A
C807       H1206   1.085       .  S
H810       C1203   1.085       .  S
Zr811       O812   2.443       .  S
Zr811       O813   2.457       .  S
Zr811       O814   2.438       .  S
Zr811       O817   2.441       .  S
Zr811       O819   2.379       .  S
Zr811       O820   2.388       .  S
Zr811       O821   2.419       .  S
Zr811       O822   2.402       .  S
O812        H868   0.991       .  S
O812        H876   0.990       .  S
O813        C833   1.285       .  A
O814        C835   1.283       .  A
O815       Zr825   2.426       .  S
O815        C834   1.282       .  A
O816       Zr824   2.425       .  S
O816        C835   1.282       .  A
O817        C834   1.285       .  A
O818       Zr826   2.393       .  S
O818        C833   1.277       .  A
O819       Zr824   2.395       .  S
O819       Zr826   2.380       .  S
O820       Zr825   2.394       .  S
O820       Zr826   2.379       .  S
O820        H855   0.966       .  S
O821       Zr824   2.400       .  S
O821       Zr841   2.384       .  S
O821        H858   0.965       .  S
O822       Zr825   2.385       .  S
O822       Zr841   2.387       .  S
Zr823       O848   2.442       .  S
Zr823       O842   2.457       .  S
Zr823       O850   2.448       .  S
Zr823       O838   2.454       .  S
Zr823       O829   2.407       .  S
Zr823       O830   2.411       .  S
Zr823       O831   2.384       .  S
Zr823       O832   2.387       .  S
Zr824       O843   2.436       .  S
Zr824       O836   2.433       .  S
Zr824       O837   2.428       .  S
Zr824       O830   2.395       .  S
Zr824       O831   2.398       .  S
Zr825       O827   2.435       .  S
Zr825       O849   2.436       .  S
Zr825       O851   2.416       .  S
Zr825       O829   2.394       .  S
Zr825       O832   2.395       .  S
Zr826       O852   2.434       .  S
Zr826       O853   2.432       .  S
Zr826       O828   2.438       .  S
Zr826       O829   2.388       .  S
Zr826       O830   2.374       .  S
O827        H864   0.990       .  S
O828        H859   0.990       .  S
O828        H873   0.990       .  S
O830        H856   0.964       .  S
O831       Zr841   2.381       .  S
O832       Zr841   2.372       .  S
O832        H857   0.966       .  S
C833        C993   1.470       .  S
C835        C886   1.456       .  S
O836        H872   0.990       .  S
O837        C839   1.283       .  A
O838        C839   1.288       .  A
O840       Zr841   2.435       .  S
O840        H869   0.991       .  S
Zr841       O844   2.437       .  S
Zr841       O845   2.440       .  S
Zr841       O846   2.399       .  S
O842        C847   1.285       .  A
O843        H860   0.991       .  S
O843        H875   0.990       .  S
O844        H861   0.990       .  S
O845        H865   0.990       .  S
O845        H874   0.990       .  S
O846        C847   1.278       .  A
C847       C1004   1.472       .  S
O848        H867   0.992       .  S
O848        H871   0.989       .  S
O849        H863   0.990       .  S
O849        H870   0.990       .  S
O850        C854   1.285       .  A
O851        C854   1.280       .  A
O852        H862   0.990       .  S
O853        H866   0.990       .  S
C854        C980   1.460       .  S
C877        C878   1.398       .  A
C877        C882   1.403       .  A
C878       C1275   1.402       .  A
C878        H883   1.084       .  S
C879       C1274   1.402       .  A
C879       C1276   1.405       .  A
C879        C888   1.479   1_556  S
C880       C1275   1.405       .  A
C880        C881   1.402       .  A
C880        H884   1.084       .  S
C881        C882   1.404       .  A
C881        C896   1.474       .  S
C882        H885   1.084       .  S
C886        N887   1.355       .  A
C886        N891   1.357       .  A
N887        C888   1.359       .  A
C888        N889   1.358       .  A
N889        C890   1.357       .  A
C890        C953   1.460       .  S
C890        N891   1.356       .  A
C892        C897   1.406       .  A
C892        C938   1.468       .  S
C893        H898   1.083       .  S
C894        C895   1.403       .  A
C894       C1144   1.471       .  S
C895        C896   1.397       .  A
C895        H899   1.085       .  S
C896        C897   1.398       .  A
C897        H900   1.085       .  S
C901       C1298   1.405       .  A
C901        C933   1.466       .  S
C902       C1297   1.405       .  A
C902        C903   1.397       .  A
C902       H1303   1.084       .  S
C903        C904   1.395       .  A
C903        C982   1.469       .  S
C904        C905   1.399       .  A
C904        H908   1.085       .  S
C905       C1130   1.470       .  S
C906        H909   1.084   1_545  S
H907       C1298   1.084       .  S
Zr910       O911   2.442       .  S
Zr910       O912   2.457       .  S
Zr910       O913   2.440       .  S
Zr910       O916   2.443       .  S
Zr910       O918   2.380       .  S
Zr910       O920   2.419       .  S
Zr910       O921   2.402       .  S
O911        H967   0.991       .  S
O911        H975   0.990       .  S
O913        C934   1.283       .  A
O914       Zr924   2.427       .  S
O915       Zr923   2.425       .  S
O915        C934   1.282       .  A
O916        C933   1.285       .  A
O917       Zr925   2.393       .  S
O917        C932   1.277       .  A
O918       Zr923   2.395       .  S
O919       Zr924   2.394       .  S
O919       Zr925   2.380       .  S
O919        H954   0.966       .  S
O920       Zr923   2.400       .  S
O920       Zr940   2.384       .  S
O920        H957   0.965       .  S
O921       Zr940   2.387       .  S
Zr922       O947   2.442       .  S
Zr922       O941   2.456       .  S
Zr922       O949   2.449       .  S
Zr922       O937   2.454       .  S
Zr922       O928   2.407       .  S
Zr922       O929   2.412       .  S
Zr922       O931   2.386       .  S
Zr923       O942   2.436       .  S
Zr923       O935   2.433       .  S
Zr923       O936   2.428       .  S
Zr923       O930   2.398       .  S
Zr924       O926   2.435       .  S
Zr924       O948   2.436       .  S
Zr924       O950   2.416       .  S
Zr924       O928   2.395       .  S
Zr924       O931   2.395       .  S
Zr925       O951   2.435       .  S
Zr925       O952   2.432       .  S
Zr925       O927   2.438       .  S
Zr925       O928   2.389       .  S
Zr925       O929   2.374       .  S
O926        H963   0.990       .  S
O927        H958   0.990       .  S
O927        H972   0.990       .  S
O929        H955   0.964       .  S
O930       Zr940   2.381       .  S
O931        H956   0.966       .  S
C932       C1101   1.470       .  S
C934        C976   1.457       .  S
O935        H971   0.990       .  S
O937        C938   1.288       .  A
O939       Zr940   2.435       .  S
O939        H968   0.991       .  S
Zr940       O943   2.437       .  S
Zr940       O944   2.440       .  S
Zr940       O945   2.399       .  S
O942        H959   0.991       .  S
O942        H974   0.990       .  S
O943        H960   0.990       .  S
O944        H964   0.990       .  S
O944        H973   0.990       .  S
O945        C946   1.278       .  A
C946       C1094   1.471       .  S
O947        H966   0.992       .  S
O947        H970   0.989       .  S
O948        H962   0.990       .  S
O948        H969   0.990       .  S
O949        C953   1.285       .  A
O950        C953   1.280       .  A
O951        H961   0.990       .  S
O952        H965   0.990       .  S
C976        N977   1.355       .  A
C976        N981   1.357       .  A
N977        C978   1.359       .  A
C978        C986   1.479       .  S
C978        N979   1.358       .  A
N979        C980   1.357       .  A
C980        N981   1.356       .  A
C982        C983   1.402       .  A
C982        C987   1.399       .  A
C983        C984   1.404       .  A
C983       H1384   1.084       .  S
C984        C985   1.402       .  A
C985        C986   1.405       .  A
C985        H989   1.084       .  S
C986        C987   1.402       .  A
C987        H990   1.084       .  S
H988       C1379   1.084   1_554  S
C991        C992   1.409       .  A
C991        C996   1.405       .  A
C991       C1032   1.466       .  S
C992        C993   1.406       .  A
C992        H997   1.084       .  S
C993        C994   1.399       .  A
C994        C995   1.395       .  A
C994        H998   1.086       .  S
C995        C996   1.397       .  A
C995       C1081   1.469       .  S
C996        H999   1.084       .  S
C1000      C1001   1.406       .  A
C1000      C1005   1.408       .  A
C1000      C1037   1.468       .  S
C1001      C1002   1.398       .  A
C1001      H1006   1.085       .  S
C1002      C1003   1.397       .  A
C1002      C1174   1.474       .  S
C1003      C1004   1.403       .  A
C1003      H1007   1.085       .  S
C1004      C1005   1.407       .  A
C1005      H1008   1.083       .  S
Zr1009     O1010   2.442       .  S
Zr1009     O1011   2.457       .  S
Zr1009     O1012   2.440       .  S
Zr1009     O1411   2.442       .  S
Zr1009     O1017   2.379       .  S
Zr1009     O1018   2.388       .  S
Zr1009     O2603   2.418   1_455  S
Zr1009     O3000   2.402   1_455  S
O1010      H1066   0.991       .  S
O1010      H1074   0.990       .  S
O1011      C1031   1.285       .  A
O1012      C1033   1.283       .  A
O1013     Zr2607   2.427   1_455  S
O1013      C1032   1.282       .  A
O1014     Zr2606   2.425   1_455  S
O1014      C1033   1.282       .  A
O1015     Zr1405   2.442   1_554  S
O1015      C1032   1.285       .  A
O1016     Zr1024   2.392       .  S
O1016      C1031   1.277       .  A
O1017     Zr2606   2.395   1_455  S
O1017     Zr1024   2.380       .  S
O1018     Zr3003   2.394   1_455  S
O1018     Zr1024   2.380       .  S
O1018      H1053   0.966       .  S
O1019     Zr2593   2.418       .  S
O1019     Zr1022   2.400       .  S
O1019     Zr1039   2.384       .  S
O1019      H1056   0.965       .  S
O1020     Zr2989   2.402       .  S
O1020     Zr1023   2.386   1_556  S
O1020     Zr1435   2.387       .  S
Zr1021     O1046   2.442       .  S
Zr1021     O1040   2.456       .  S
Zr1021     O1048   2.449       .  S
Zr1021     O1036   2.454       .  S
Zr1021     O1027   2.407       .  S
Zr1021     O1028   2.411       .  S
Zr1021     O1029   2.384       .  S
Zr1021     O1030   2.387       .  S
Zr1022     O1041   2.436       .  S
Zr1022     O1034   2.433       .  S
Zr1022     O2598   2.425       .  S
Zr1022     O1035   2.428       .  S
Zr1022     O2601   2.395       .  S
Zr1022     O1028   2.395       .  S
Zr1022     O1029   2.398       .  S
Zr1023     O1025   2.435       .  S
Zr1023     O2631   2.436       .  S
Zr1023     O2597   2.427       .  S
Zr1023     O1049   2.415       .  S
Zr1023     O2998   2.394   1_554  S
Zr1023     O1423   2.395   1_554  S
Zr1023     O1426   2.395   1_554  S
Zr1024     O1050   2.435       .  S
Zr1024     O1051   2.432   1_455  S
Zr1024     O1026   2.438       .  S
Zr1024     O2611   2.388   1_455  S
Zr1024     O2612   2.374   1_455  S
O1025      H1062   0.990       .  S
O1026      H1057   0.990       .  S
O1026      H1071   0.990       .  S
O1027     Zr1419   2.395       .  S
O1027     Zr2608   2.388       .  S
O1028     Zr2608   2.374       .  S
O1028      H1054   0.964       .  S
O1029     Zr1039   2.381       .  S
O1030     Zr1419   2.395       .  S
O1030     Zr1039   2.372       .  S
O1030      H1451   0.966       .  S
C1033      C1075   1.457       .  S
O1034      H2654   0.990       .  S
O1035      C1037   1.283       .  A
O1036      C1037   1.288       .  A
O1038     Zr1435   2.435   1_554  S
O1038      H1067   0.991       .  S
Zr1039     O1434   2.435       .  S
Zr1039     O1042   2.437       .  S
Zr1039     O1439   2.440       .  S
Zr1039     O1044   2.399       .  S
Zr1039     O1416   2.387       .  S
O1040      C1045   1.285       .  A
O1041      H1058   0.991       .  S
O1041      H1073   0.990       .  S
O1042      H1059   0.990       .  S
O1043     Zr1435   2.440   1_554  S
O1043      H1063   0.990       .  S
O1043      H1072   0.990       .  S
O1044      C1045   1.277       .  A
O1046      H1065   0.992       .  S
O1046      H1069   0.989       .  S
O1047     Zr2607   2.436   1_455  S
O1047      H1061   0.990       .  S
O1047      H1068   0.990       .  S
O1048      C1448   1.285       .  A
O1049      C1052   1.280       .  A
O1050      H1060   0.990       .  S
O1051      H2648   0.990       .  S
C1052      C1187   1.460       .  S
C1052      O1444   1.285   1_554  A
H1055      O1426   0.966   1_554  S
H1064      O2635   0.990       .  S
H1070      O2618   0.990       .  S
C1075      N1076   1.357       .  A
C1075      N1080   1.355       .  A
N1076      C1077   1.356       .  A
C1077      C1151   1.460       .  S
C1077      N1078   1.357       .  A
N1078      C1079   1.358       .  A
C1079      C1083   1.479       .  S
C1079      N1080   1.359       .  A
C1081      C1082   1.399       .  A
C1081      C1086   1.402       .  A
C1082      C1083   1.402       .  A
C1082      H1087   1.084       .  S
C1083      C1084   1.405       .  A
C1084      C1085   1.402       .  A
C1084      H1088   1.084       .  S
C1085      C1086   1.404       .  A
C1085      C1092   1.473       .  S
C1086      H1089   1.084       .  S
C1090      C1091   1.405       .  A
C1090      C1136   1.468       .  S
C1091      C1092   1.398       .  A
C1091      H1096   1.085       .  S
C1092      C1093   1.396       .  A
C1093      C1094   1.402       .  A
C1093      H1097   1.085       .  S
C1095      H1098   1.083   1_545  S
C1099      C1104   1.405       .  A
C1099      C1131   1.465       .  S
C1100      H1105   1.084       .  S
C1101      C1102   1.400       .  A
C1102      C1103   1.395       .  A
C1102      H1106   1.085       .  S
C1103      C1104   1.397       .  A
C1103      C1178   1.469       .  S
C1104      H1107   1.084       .  S
Zr1108     O1109   2.443       .  S
Zr1108     O1110   2.458       .  S
Zr1108     O1111   2.439       .  S
Zr1108     O1114   2.441       .  S
Zr1108     O1116   2.379       .  S
Zr1108     O1118   2.418       .  S
Zr1108     O1119   2.402       .  S
O1109      H1165   0.991       .  S
O1109      H1173   0.990       .  S
O1111      C1528   1.283       .  A
O1112     Zr1122   2.426       .  S
O1113     Zr1121   2.424       .  S
O1113      C1132   1.282       .  A
O1114      C1131   1.285       .  A
O1115     Zr1123   2.392       .  S
O1115      C1130   1.277       .  A
O1116     Zr1517   2.395       .  S
O1117     Zr1122   2.394       .  S
O1117     Zr1123   2.379       .  S
O1117      H1152   0.966       .  S
O1118     Zr1517   2.400       .  S
O1118     Zr2722   2.384       .  S
O1118      H1155   0.965       .  S
O1119     Zr2722   2.387       .  S
Zr1120     O1145   2.442       .  S
Zr1120     O1139   2.457       .  S
Zr1120     O1147   2.449       .  S
Zr1120     O1531   2.454       .  S
Zr1120     O2710   2.407   1_455  S
Zr1120     O3107   2.411   1_455  S
Zr1120     O1129   2.387       .  S
Zr1121     O2724   2.436       .  S
Zr1121     O1133   2.433       .  S
Zr1121     O2718   2.428       .  S
Zr1121     O1512   2.395       .  S
Zr1121     O1514   2.400   1_554  S
Zr1121     O3108   2.397   1_554  S
Zr1122     O1124   2.435       .  S
Zr1122     O1146   2.436       .  S
Zr1122     O2732   2.416       .  S
Zr1122     O1126   2.395       .  S
Zr1122     O2713   2.395       .  S
Zr1123     O1149   2.434       .  S
Zr1123     O1546   2.432       .  S
Zr1123     O1521   2.438       .  S
Zr1123     O1126   2.388       .  S
Zr1123     O1523   2.374       .  S
O1124      H1161   0.990       .  S
O1125     Zr1519   2.438   1_554  S
O1125      H1156   0.990       .  S
O1125      H1170   0.990       .  S
O1126     Zr2704   2.407       .  S
O1127     Zr3100   2.411       .  S
O1127     Zr1519   2.374       .  S
O1127      H1153   0.964   1_556  S
O1128     Zr3101   2.397   1_455  S
O1128     Zr1138   2.381       .  S
O1129     Zr2706   2.395   1_455  S
O1129      H1154   0.966       .  S
C1132      C1183   1.456       .  S
C1132      O1507   1.283   1_554  A
O1133      H1169   0.990   1_565  S
O1134     Zr2705   2.428   1_455  S
O1135     Zr1516   2.454   1_554  S
O1135      C1136   1.288       .  A
O1137     Zr2722   2.435       .  S
O1137      H2750   0.991       .  S
Zr1138     O2721   2.435   1_455  S
Zr1138     O1141   2.437       .  S
Zr1138     O1142   2.440       .  S
Zr1138     O1143   2.399       .  S
Zr1138     O2702   2.384   1_455  S
Zr1138     O2703   2.387   1_455  S
O1140     Zr2705   2.436   1_455  S
O1140      H1157   0.991       .  S
O1140      H1172   0.990       .  S
O1141      H1158   0.990       .  S
O1142      H1162   0.990       .  S
O1142      H1171   0.990   1_455  S
O1143      C1144   1.278       .  A
O1145      H1164   0.992       .  S
O1145      H1564   0.989       .  S
O1146      H1160   0.990       .  S
O1146      H1167   0.990       .  S
O1147      C1151   1.285       .  A
O1148     Zr2706   2.416   1_455  S
O1148      C1151   1.280       .  A
O1149      H1159   0.990       .  S
O1150     Zr1519   2.432   1_554  S
O1150      H1163   0.990   1_554  S
H1166      O2721   0.991   1_455  S
H1168      O1541   0.989       .  S
C1174      C1175   1.402       .  A
C1174      C1179   1.404       .  A
C1175      C1176   1.405       .  A
C1175      H1180   1.084       .  S
C1176      C1177   1.402       .  A
C1176      C1185   1.479       .  S
C1177      C1178   1.398       .  A
C1177      H1181   1.084       .  S
C1178      C1179   1.403       .  A
C1179      H1182   1.084       .  S
C1183      N1184   1.355       .  A
C1183      N1584   1.357       .  A
N1184      C1185   1.359       .  A
C1185      N1186   1.358       .  A
N1186      C1187   1.356       .  A
C1187      N1584   1.356       .  A
N1188      C1579   1.357       .  A
N1188      C1583   1.356       .  A
C1189      C1190   1.405       .  A
C1189      C1194   1.409       .  A
C1189      C1230   1.465       .  S
C1190      C1191   1.397       .  A
C1190      H1195   1.084       .  S
C1191      C1192   1.395       .  A
C1191      C1273   1.469       .  S
C1192      C1193   1.399       .  A
C1192      H1196   1.085       .  S
C1193      C1194   1.406       .  A
C1193      C1427   1.469       .  S
C1194      H1197   1.084       .  S
C1198      C1199   1.408       .  A
C1198      C1235   1.468       .  S
C1199      H1204   1.083       .  S
C1200      C1201   1.403       .  A
C1200      C1441   1.471       .  S
C1201      C1202   1.397       .  A
C1201      H1205   1.085       .  S
C1202      C1203   1.398   1_556  A
C1202      C1380   1.473       .  S
Zr1207     O1208   2.443       .  S
Zr1207     O1209   2.457       .  S
Zr1207     O1210   2.438       .  S
Zr1207     O1213   2.441       .  S
Zr1207     O1215   2.379       .  S
Zr1207     O1216   2.388       .  S
Zr1207     O1217   2.419       .  S
Zr1207     O1218   2.402       .  S
O1208      H1264   0.991       .  S
O1208      H1272   0.990       .  S
O1209      C1229   1.285       .  A
O1210      C1231   1.283       .  A
O1211     Zr1221   2.426       .  S
O1211      C1230   1.282       .  A
O1212     Zr1220   2.425       .  S
O1212      C1231   1.282       .  A
O1213      C1230   1.285       .  A
O1214     Zr1222   2.393       .  S
O1214      C1229   1.277       .  A
O1215     Zr1220   2.395       .  S
O1215     Zr1222   2.380       .  S
O1216     Zr1221   2.394       .  S
O1216     Zr1222   2.379       .  S
O1216      H1251   0.966       .  S
O1217     Zr1220   2.400       .  S
O1217     Zr1237   2.384       .  S
O1217      H1254   0.965       .  S
O1218     Zr1221   2.385       .  S
O1218     Zr1237   2.387       .  S
Zr1219     O1244   2.442       .  S
Zr1219     O1238   2.457       .  S
Zr1219     O1246   2.448       .  S
Zr1219     O1234   2.454       .  S
Zr1219     O1225   2.407       .  S
Zr1219     O1226   2.411       .  S
Zr1219     O1227   2.384       .  S
Zr1219     O1228   2.387       .  S
Zr1220     O1239   2.436       .  S
Zr1220     O1232   2.433       .  S
Zr1220     O1233   2.428       .  S
Zr1220     O1226   2.395       .  S
Zr1220     O1227   2.398       .  S
Zr1221     O1223   2.435       .  S
Zr1221     O1245   2.436       .  S
Zr1221     O1247   2.416       .  S
Zr1221     O1225   2.394       .  S
Zr1221     O1228   2.395       .  S
Zr1222     O1248   2.434       .  S
Zr1222     O1249   2.432       .  S
Zr1222     O1224   2.438       .  S
Zr1222     O1225   2.388       .  S
Zr1222     O1226   2.374       .  S
O1223      H1260   0.990       .  S
O1224      H1255   0.990       .  S
O1224      H1269   0.990       .  S
O1226      H1252   0.964       .  S
O1227     Zr1237   2.381       .  S
O1228     Zr1237   2.372       .  S
O1228      H1253   0.966       .  S
C1229      C1389   1.470       .  S
C1231      C1282   1.456       .  S
O1232      H1268   0.990       .  S
O1233      C1235   1.283       .  A
O1234      C1235   1.288       .  A
O1236     Zr1237   2.435       .  S
O1236      H1265   0.991       .  S
Zr1237     O1240   2.437       .  S
Zr1237     O1241   2.440       .  S
Zr1237     O1242   2.399       .  S
O1238      C1243   1.285       .  A
O1239      H1256   0.991       .  S
O1239      H1271   0.990       .  S
O1240      H1257   0.990       .  S
O1241      H1261   0.990       .  S
O1241      H1270   0.990       .  S
O1242      C1243   1.278       .  A
C1243      C1400   1.472       .  S
O1244      H1263   0.992       .  S
O1244      H1267   0.989       .  S
O1245      H1259   0.990       .  S
O1245      H1266   0.990       .  S
O1246      C1250   1.285       .  A
O1247      C1250   1.280       .  A
O1248      H1258   0.990       .  S
O1249      H1262   0.990       .  S
C1250      C1376   1.460       .  S
C1273      C1274   1.398       .  A
C1273      C1278   1.403       .  A
C1274      H1279   1.084       .  S
C1275      C1284   1.479       .  S
C1276      C1277   1.402       .  A
C1276      H1280   1.084       .  S
C1277      C1278   1.404       .  A
C1277      C1292   1.474       .  S
C1278      H1281   1.084       .  S
C1282      N1283   1.355       .  A
C1282      N1287   1.357       .  A
N1283      C1284   1.359       .  A
C1284      N1285   1.358       .  A
N1285      C1286   1.357       .  A
C1286      C1349   1.460       .  S
C1286      N1287   1.356       .  A
C1288      C1293   1.406       .  A
C1288      C1334   1.468       .  S
C1289      H1294   1.083       .  S
C1290      C1291   1.403       .  A
C1290      C1540   1.471       .  S
C1291      C1292   1.397       .  A
C1291      H1295   1.085       .  S
C1292      C1293   1.398       .  A
C1293      H1296   1.085       .  S
C1297      C1329   1.466       .  S
C1298      C1299   1.397   1_554  A
C1299      C1300   1.395       .  A
C1299      C1378   1.469       .  S
C1300      C1301   1.399       .  A
C1300      H1304   1.085       .  S
C1301      C1526   1.470       .  S
C1302      H1305   1.084   1_545  S
Zr1306     O1307   2.442       .  S
Zr1306     O1308   2.457       .  S
Zr1306     O1309   2.440       .  S
Zr1306     O1312   2.443       .  S
Zr1306     O1314   2.380       .  S
Zr1306     O1316   2.419       .  S
Zr1306     O1317   2.402       .  S
O1307      H1363   0.991       .  S
O1307      H1371   0.990       .  S
O1309      C1330   1.283       .  A
O1310     Zr1320   2.427       .  S
O1311     Zr1319   2.425       .  S
O1311      C1330   1.282       .  A
O1312      C1329   1.285       .  A
O1313     Zr1321   2.393       .  S
O1313      C1328   1.277       .  A
O1314     Zr1319   2.395       .  S
O1315     Zr1320   2.394       .  S
O1315     Zr1321   2.380       .  S
O1315      H1350   0.966       .  S
O1316     Zr1319   2.400       .  S
O1316     Zr1336   2.384       .  S
O1316      H1353   0.965       .  S
O1317     Zr1336   2.387       .  S
Zr1318     O1343   2.442       .  S
Zr1318     O1337   2.456       .  S
Zr1318     O1345   2.449       .  S
Zr1318     O1333   2.454       .  S
Zr1318     O1324   2.407       .  S
Zr1318     O1325   2.412       .  S
Zr1318     O1327   2.386       .  S
Zr1319     O1338   2.436       .  S
Zr1319     O1331   2.433       .  S
Zr1319     O1332   2.428       .  S
Zr1319     O1326   2.398       .  S
Zr1320     O1322   2.435       .  S
Zr1320     O1344   2.436       .  S
Zr1320     O1346   2.416       .  S
Zr1320     O1324   2.395       .  S
Zr1320     O1327   2.395       .  S
Zr1321     O1347   2.435       .  S
Zr1321     O1348   2.432       .  S
Zr1321     O1323   2.438       .  S
Zr1321     O1324   2.389       .  S
Zr1321     O1325   2.374       .  S
O1322      H1359   0.990       .  S
O1323      H1354   0.990       .  S
O1323      H1368   0.990       .  S
O1325      H1351   0.964       .  S
O1326     Zr1336   2.381       .  S
O1327      H1352   0.966       .  S
C1328      C1497   1.470       .  S
C1330      C1372   1.457       .  S
O1331      H1367   0.990       .  S
O1333      C1334   1.288       .  A
O1335     Zr1336   2.435       .  S
O1335      H1364   0.991       .  S
Zr1336     O1339   2.437       .  S
Zr1336     O1340   2.440       .  S
Zr1336     O1341   2.399       .  S
O1338      H1355   0.991       .  S
O1338      H1370   0.990       .  S
O1339      H1356   0.990       .  S
O1340      H1360   0.990       .  S
O1340      H1369   0.990       .  S
O1341      C1342   1.278       .  A
C1342      C1490   1.471       .  S
O1343      H1362   0.992       .  S
O1343      H1366   0.989       .  S
O1344      H1358   0.990       .  S
O1344      H1365   0.990       .  S
O1345      C1349   1.285       .  A
O1346      C1349   1.280       .  A
O1347      H1357   0.990       .  S
O1348      H1361   0.990       .  S
C1372      N1373   1.355       .  A
C1372      N1377   1.357       .  A
N1373      C1374   1.359       .  A
C1374      C1382   1.479       .  S
C1374      N1375   1.358       .  A
N1375      C1376   1.357       .  A
C1376      N1377   1.356       .  A
C1378      C1379   1.402       .  A
C1378      C1383   1.399       .  A
C1379      C1380   1.404       .  A
C1380      C1381   1.402       .  A
C1381      C1382   1.405       .  A
C1381      H1385   1.084       .  S
C1382      C1383   1.402       .  A
C1383      H1386   1.084       .  S
C1387      C1388   1.409       .  A
C1387      C1392   1.405       .  A
C1387      C1428   1.466       .  S
C1388      C1389   1.406       .  A
C1388      H1393   1.084       .  S
C1389      C1390   1.399       .  A
C1390      C1391   1.395       .  A
C1390      H1394   1.086       .  S
C1391      C1392   1.397       .  A
C1391      C1477   1.469       .  S
C1392      H1395   1.084       .  S
C1396      C1397   1.406       .  A
C1396      C1401   1.408       .  A
C1396      C1433   1.468       .  S
C1397      C1398   1.398       .  A
C1397      H1402   1.085       .  S
C1398      C1399   1.397       .  A
C1398      C1570   1.474       .  S
C1399      C1400   1.403       .  A
C1399      H1403   1.085       .  S
C1400      C1401   1.407       .  A
C1401      H1404   1.083       .  S
Zr1405     O1406   2.442       .  S
Zr1405     O1407   2.457       .  S
Zr1405     O1408   2.440       .  S
Zr1405     O1413   2.379       .  S
Zr1405     O1414   2.388       .  S
Zr1405     O2999   2.418   1_455  S
Zr1405     O2604   2.402   1_455  S
O1406      H1462   0.991       .  S
O1406      H1470   0.990       .  S
O1407      C1427   1.285       .  A
O1408      C1429   1.283       .  A
O1409     Zr3003   2.427   1_455  S
O1409      C1428   1.282       .  A
O1410     Zr3002   2.425   1_455  S
O1410      C1429   1.282       .  A
O1411      C1428   1.285       .  A
O1412     Zr1420   2.392       .  S
O1412      C1427   1.277       .  A
O1413     Zr3002   2.395   1_455  S
O1413     Zr1420   2.380       .  S
O1414     Zr2607   2.394   1_456  S
O1414     Zr1420   2.380       .  S
O1414      H1449   0.966       .  S
O1415     Zr2989   2.418       .  S
O1415     Zr1418   2.400       .  S
O1415     Zr1435   2.384       .  S
O1415      H1452   0.965       .  S
O1416     Zr2593   2.402       .  S
O1416     Zr1419   2.386       .  S
Zr1417     O1442   2.442       .  S
Zr1417     O1436   2.456       .  S
Zr1417     O1444   2.449       .  S
Zr1417     O1432   2.454       .  S
Zr1417     O1423   2.407       .  S
Zr1417     O1424   2.411       .  S
Zr1417     O1425   2.384       .  S
Zr1417     O1426   2.387       .  S
Zr1418     O1437   2.436       .  S
Zr1418     O1430   2.433       .  S
Zr1418     O2994   2.425       .  S
Zr1418     O1431   2.428       .  S
Zr1418     O2997   2.395       .  S
Zr1418     O1424   2.395       .  S
Zr1418     O1425   2.398       .  S
Zr1419     O1421   2.435       .  S
Zr1419     O3027   2.436       .  S
Zr1419     O2993   2.427       .  S
Zr1419     O1445   2.415       .  S
Zr1419     O2602   2.394       .  S
Zr1420     O1446   2.435       .  S
Zr1420     O1447   2.432   1_455  S
Zr1420     O1422   2.438       .  S
Zr1420     O3007   2.388   1_455  S
Zr1420     O3008   2.374   1_455  S
O1421      H1458   0.990       .  S
O1422      H1453   0.990       .  S
O1422      H1467   0.990       .  S
O1423     Zr3004   2.388       .  S
O1424     Zr3004   2.374       .  S
O1424      H1450   0.964       .  S
O1425     Zr1435   2.381       .  S
O1426     Zr1435   2.372       .  S
C1429      C1471   1.457       .  S
O1430      H3050   0.990       .  S
O1431      C1433   1.283       .  A
O1432      C1433   1.288       .  A
O1434      H1463   0.991       .  S
Zr1435     O1438   2.437       .  S
Zr1435     O1440   2.399       .  S
O1436      C1441   1.285       .  A
O1437      H1454   0.991       .  S
O1437      H1469   0.990       .  S
O1438      H1455   0.990       .  S
O1439      H1459   0.990       .  S
O1439      H1468   0.990       .  S
O1440      C1441   1.277       .  A
O1442      H1461   0.992       .  S
O1442      H1465   0.989       .  S
O1443     Zr3003   2.436   1_455  S
O1443      H1457   0.990       .  S
O1443      H1464   0.990       .  S
O1445      C1448   1.280       .  A
O1446      H1456   0.990       .  S
O1447      H3044   0.990       .  S
C1448      C1583   1.460       .  S
H1460      O3031   0.990       .  S
H1466      O3014   0.990       .  S
C1471      N1472   1.357       .  A
C1471      N1476   1.355       .  A
N1472      C1473   1.356       .  A
C1473      C1547   1.460       .  S
C1473      N1474   1.357       .  A
N1474      C1475   1.358       .  A
C1475      C1479   1.479       .  S
C1475      N1476   1.359       .  A
C1477      C1478   1.399       .  A
C1477      C1482   1.402       .  A
C1478      C1479   1.402       .  A
C1478      H1483   1.084       .  S
C1479      C1480   1.405       .  A
C1480      C1481   1.402       .  A
C1480      H1484   1.084       .  S
C1481      C1482   1.404       .  A
C1481      C1488   1.473       .  S
C1482      H1485   1.084       .  S
C1486      C1487   1.405       .  A
C1486      C1532   1.468       .  S
C1487      C1488   1.398       .  A
C1487      H1492   1.085       .  S
C1488      C1489   1.396       .  A
C1489      C1490   1.402       .  A
C1489      H1493   1.085       .  S
C1491      H1494   1.083   1_545  S
C1495      C1500   1.405       .  A
C1495      C1527   1.465       .  S
C1496      H1501   1.084       .  S
C1497      C1498   1.400       .  A
C1498      C1499   1.395       .  A
C1498      H1502   1.085       .  S
C1499      C1500   1.397       .  A
C1499      C1574   1.469       .  S
C1500      H1503   1.084       .  S
Zr1504     O1505   2.443       .  S
Zr1504     O1506   2.458       .  S
Zr1504     O1507   2.439       .  S
Zr1504     O1510   2.441       .  S
Zr1504     O1512   2.379   1_556  S
Zr1504     O1514   2.418       .  S
Zr1504     O1515   2.402       .  S
O1505      H1561   0.991       .  S
O1505      H1569   0.990       .  S
O1508     Zr1518   2.426       .  S
O1509     Zr1517   2.424       .  S
O1509      C1528   1.282       .  A
O1510      C1527   1.285       .  A
O1511     Zr1519   2.392       .  S
O1511      C1526   1.277       .  A
O1513     Zr1518   2.394       .  S
O1513     Zr1519   2.379       .  S
O1513      H1548   0.966       .  S
O1514     Zr3118   2.384       .  S
O1514      H1551   0.965       .  S
O1515     Zr3118   2.387       .  S
Zr1516     O1541   2.442       .  S
Zr1516     O1535   2.457       .  S
Zr1516     O1543   2.449       .  S
Zr1516     O3106   2.407   1_455  S
Zr1516     O2711   2.411   1_455  S
Zr1516     O1525   2.387       .  S
Zr1517     O3120   2.436       .  S
Zr1517     O1529   2.433       .  S
Zr1517     O3114   2.428       .  S
Zr1517     O2712   2.397       .  S
Zr1518     O1520   2.435       .  S
Zr1518     O1542   2.436       .  S
Zr1518     O3128   2.416       .  S
Zr1518     O1522   2.395       .  S
Zr1518     O3109   2.395       .  S
Zr1519     O1545   2.434       .  S
Zr1519     O1522   2.388       .  S
O1520      H1557   0.990       .  S
O1521      H1552   0.990       .  S
O1521      H1566   0.990       .  S
O1522     Zr3100   2.407       .  S
O1523     Zr2704   2.411       .  S
O1523      H1549   0.964       .  S
O1524     Zr2705   2.397   1_456  S
O1524     Zr1534   2.381       .  S
O1525     Zr3102   2.395   1_455  S
O1525      H1550   0.966       .  S
C1528      C1579   1.456       .  S
O1529      H1565   0.990   1_565  S
O1530     Zr3101   2.428   1_455  S
O1531      C1532   1.288       .  A
O1533     Zr3118   2.435       .  S
O1533      H3146   0.991       .  S
Zr1534     O3117   2.435   1_455  S
Zr1534     O1537   2.437       .  S
Zr1534     O1538   2.440       .  S
Zr1534     O1539   2.399       .  S
Zr1534     O3098   2.384   1_455  S
Zr1534     O3099   2.387   1_455  S
O1536     Zr3101   2.436   1_455  S
O1536      H1553   0.991       .  S
O1536      H1568   0.990       .  S
O1537      H1554   0.990       .  S
O1538      H1558   0.990       .  S
O1538      H1567   0.990   1_455  S
O1539      C1540   1.278       .  A
O1541      H1560   0.992       .  S
O1542      H1556   0.990       .  S
O1542      H1563   0.990       .  S
O1543      C1547   1.285       .  A
O1544     Zr3102   2.416   1_455  S
O1544      C1547   1.280       .  A
O1545      H1555   0.990       .  S
O1546      H1559   0.990       .  S
H1562      O3117   0.991   1_455  S
C1570      C1571   1.402       .  A
C1570      C1575   1.404       .  A
C1571      C1572   1.405       .  A
C1571      H1576   1.084       .  S
C1572      C1573   1.402       .  A
C1572      C1581   1.479       .  S
C1573      C1574   1.398       .  A
C1573      H1577   1.084       .  S
C1574      C1575   1.403       .  A
C1575      H1578   1.084       .  S
C1579      N1580   1.355       .  A
N1580      C1581   1.359       .  A
C1581      N1582   1.358       .  A
N1582      C1583   1.356       .  A
C1585      C1586   1.405       .  A
C1585      C1590   1.409       .  A
C1585      C1626   1.465       .  S
C1586      C1587   1.397       .  A
C1586      H1591   1.084       .  S
C1587      C1588   1.395       .  A
C1587      C1669   1.469       .  S
C1588      C1589   1.399       .  A
C1588      H1592   1.085       .  S
C1589      C1590   1.406       .  A
C1589      C1823   1.469       .  S
C1590      H1593   1.084       .  S
C1594      C1595   1.408       .  A
C1594      C1995   1.405       .  A
C1594      C1631   1.468       .  S
C1595      C1992   1.407   1_554  A
C1595      H1600   1.083       .  S
C1596      C1991   1.407       .  A
C1596      C1597   1.403       .  A
C1596      C1837   1.471       .  S
C1597      C1598   1.397       .  A
C1597      H1601   1.085       .  S
C1598      C1599   1.398       .  A
C1598      C1776   1.473       .  S
C1599      C1990   1.405       .  A
C1599      H1998   1.085       .  S
H1602      C1995   1.085       .  S
Zr1603     O1604   2.443       .  S
Zr1603     O1605   2.457       .  S
Zr1603     O1606   2.438       .  S
Zr1603     O1609   2.441       .  S
Zr1603     O1611   2.379       .  S
Zr1603     O1612   2.388       .  S
Zr1603     O1613   2.419       .  S
Zr1603     O1614   2.402       .  S
O1604      H1660   0.991       .  S
O1604      H1668   0.990       .  S
O1605      C1625   1.285       .  A
O1606      C1627   1.283       .  A
O1607     Zr1617   2.426       .  S
O1607      C1626   1.282       .  A
O1608     Zr1616   2.425       .  S
O1608      C1627   1.282       .  A
O1609      C1626   1.285       .  A
O1610     Zr1618   2.393       .  S
O1610      C1625   1.277       .  A
O1611     Zr1616   2.395       .  S
O1611     Zr1618   2.380       .  S
O1612     Zr1617   2.394       .  S
O1612     Zr1618   2.379       .  S
O1612      H1647   0.966       .  S
O1613     Zr1616   2.400       .  S
O1613     Zr1633   2.384       .  S
O1613      H1650   0.965       .  S
O1614     Zr1617   2.385       .  S
O1614     Zr1633   2.387       .  S
Zr1615     O1640   2.442       .  S
Zr1615     O1634   2.457       .  S
Zr1615     O1642   2.448       .  S
Zr1615     O1630   2.454       .  S
Zr1615     O1621   2.407       .  S
Zr1615     O1622   2.411       .  S
Zr1615     O1623   2.384       .  S
Zr1615     O1624   2.387       .  S
Zr1616     O1635   2.436       .  S
Zr1616     O1628   2.433       .  S
Zr1616     O1629   2.428       .  S
Zr1616     O1622   2.395       .  S
Zr1616     O1623   2.398       .  S
Zr1617     O1619   2.435       .  S
Zr1617     O1641   2.436       .  S
Zr1617     O1643   2.416       .  S
Zr1617     O1621   2.394       .  S
Zr1617     O1624   2.395       .  S
Zr1618     O1644   2.434       .  S
Zr1618     O1645   2.432       .  S
Zr1618     O1620   2.438       .  S
Zr1618     O1621   2.388       .  S
Zr1618     O1622   2.374       .  S
O1619      H1656   0.990       .  S
O1620      H1651   0.990       .  S
O1620      H1665   0.990       .  S
O1622      H1648   0.964       .  S
O1623     Zr1633   2.381       .  S
O1624     Zr1633   2.372       .  S
O1624      H1649   0.966       .  S
C1625      C1785   1.470       .  S
C1627      C1678   1.456       .  S
O1628      H1664   0.990       .  S
O1629      C1631   1.283       .  A
O1630      C1631   1.288       .  A
O1632     Zr1633   2.435       .  S
O1632      H1661   0.991       .  S
Zr1633     O1636   2.437       .  S
Zr1633     O1637   2.440       .  S
Zr1633     O1638   2.399       .  S
O1634      C1639   1.285       .  A
O1635      H1652   0.991       .  S
O1635      H1667   0.990       .  S
O1636      H1653   0.990       .  S
O1637      H1657   0.990       .  S
O1637      H1666   0.990       .  S
O1638      C1639   1.278       .  A
C1639      C1796   1.472       .  S
O1640      H1659   0.992       .  S
O1640      H1663   0.989       .  S
O1641      H1655   0.990       .  S
O1641      H1662   0.990       .  S
O1642      C1646   1.285       .  A
O1643      C1646   1.280       .  A
O1644      H1654   0.990       .  S
O1645      H1658   0.990       .  S
C1646      C1772   1.460       .  S
C1669      C1670   1.398       .  A
C1669      C1674   1.403       .  A
C1670      C2067   1.402       .  A
C1670      H1675   1.084       .  S
C1671      C2066   1.402       .  A
C1671      C2068   1.405       .  A
C1671      C1680   1.479   1_556  S
C1672      C2067   1.405       .  A
C1672      C1673   1.402       .  A
C1672      H1676   1.084       .  S
C1673      C1674   1.404       .  A
C1673      C1688   1.474       .  S
C1674      H1677   1.084       .  S
C1678      N1679   1.355       .  A
C1678      N1683   1.357       .  A
N1679      C1680   1.359       .  A
C1680      N1681   1.358       .  A
N1681      C1682   1.357       .  A
C1682      C1745   1.460       .  S
C1682      N1683   1.356       .  A
C1684      C2477   1.408       .  A
C1684      C1689   1.406       .  A
C1684      C1730   1.468       .  S
C1685      C2476   1.408       .  A
C1685      C2478   1.407       .  A
C1685      H1690   1.083   1_565  S
C1686      C2477   1.407       .  A
C1686      C1687   1.403       .  A
C1686      C1936   1.471       .  S
C1687      C1688   1.397       .  A
C1687      H1691   1.085       .  S
C1688      C1689   1.398       .  A
C1689      H1692   1.085       .  S
C1693      C2090   1.405       .  A
C1693      C2490   1.409       .  A
C1693      C1725   1.466       .  S
C1694      C2089   1.405       .  A
C1694      C1695   1.397       .  A
C1694      H2095   1.084       .  S
C1695      C1696   1.395       .  A
C1695      C1774   1.469       .  S
C1696      C1697   1.399       .  A
C1696      H1700   1.085       .  S
C1697      C2886   1.406       .  A
C1697      C1922   1.470       .  S
C1698      C2485   1.409       .  A
C1698      C2885   1.406   1_554  A
C1698      H1701   1.084       .  S
H1699      C2090   1.084       .  S
Zr1702     O1703   2.442       .  S
Zr1702     O1704   2.457   1_545  S
Zr1702     O1705   2.440       .  S
Zr1702     O1708   2.443       .  S
Zr1702     O1710   2.380   1_545  S
Zr1702     O2503   2.388   1_545  S
Zr1702     O1712   2.419       .  S
Zr1702     O1713   2.402       .  S
O1703      H1759   0.991       .  S
O1703      H1767   0.990       .  S
O1704      C2516   1.285       .  A
O1705      C1726   1.283       .  A
O1706     Zr1716   2.427       .  S
O1706      C2517   1.282       .  A
O1707     Zr1715   2.425       .  S
O1707      C1726   1.282       .  A
O1708      C1725   1.285       .  A
O1709     Zr1717   2.393       .  S
O1709      C1724   1.277       .  A
O1710     Zr1715   2.395   1_565  S
O1710     Zr2509   2.380       .  S
O1711     Zr2494   2.388       .  S
O1711     Zr1716   2.394       .  S
O1711     Zr1717   2.380       .  S
O1711      H1746   0.966       .  S
O1712     Zr1715   2.400       .  S
O1712     Zr1732   2.384       .  S
O1712      H1749   0.965       .  S
O1713     Zr2508   2.386   1_545  S
O1713     Zr1732   2.387       .  S
Zr1714     O1739   2.442       .  S
Zr1714     O1733   2.456       .  S
Zr1714     O1741   2.449       .  S
Zr1714     O1729   2.454       .  S
Zr1714     O1720   2.407       .  S
Zr1714     O1721   2.412       .  S
Zr1714     O2514   2.384       .  S
Zr1714     O1723   2.386       .  S
Zr1715     O1734   2.436       .  S
Zr1715     O1727   2.433       .  S
Zr1715     O1728   2.428   1_545  S
Zr1715     O2513   2.395   1_545  S
Zr1715     O1722   2.398       .  S
Zr1716     O1718   2.435       .  S
Zr1716     O1740   2.436       .  S
Zr1716     O1742   2.416       .  S
Zr1716     O2505   2.386       .  S
Zr1716     O1720   2.395       .  S
Zr1716     O1723   2.395       .  S
Zr1717     O1743   2.435       .  S
Zr1717     O1744   2.432       .  S
Zr1717     O1719   2.438       .  S
Zr1717     O2502   2.380       .  S
Zr1717     O1720   2.389       .  S
Zr1717     O1721   2.374       .  S
O1718      H1755   0.990       .  S
O1719      H1750   0.990       .  S
O1719      H1764   0.990       .  S
O1721     Zr2507   2.395       .  S
O1721      H1747   0.964       .  S
O1722     Zr2506   2.384   1_545  S
O1722     Zr1732   2.381       .  S
O1723     Zr2524   2.372       .  S
O1723      H1748   0.966       .  S
C1724      C1893   1.470       .  S
C1724      O2496   1.285       .  A
C1725      O2498   1.282   1_545  A
C1726      C1768   1.457       .  S
O1727      H1763   0.990   1_545  S
O1728      C2522   1.283       .  A
O1729      C1730   1.288       .  A
C1730      O2520   1.283       .  A
O1731     Zr1732   2.435       .  S
O1731      H1760   0.991       .  S
Zr1732     O1735   2.437       .  S
Zr1732     O1736   2.440       .  S
Zr1732     O1737   2.399       .  S
Zr1732     O2515   2.372   1_545  S
O1733      C2530   1.285       .  A
O1734      H1751   0.991       .  S
O1734      H1766   0.990       .  S
O1735      H1752   0.990       .  S
O1736      H1756   0.990       .  S
O1736      H1765   0.990       .  S
O1737      C1738   1.278       .  A
C1738      C1886   1.471       .  S
C1738      O2525   1.285   1_545  A
O1739      H1758   0.992       .  S
O1739      H1762   0.989       .  S
O1740      H1754   0.990       .  S
O1740      H1761   0.990       .  S
O1741      C1745   1.285       .  A
O1742      C1745   1.280       .  A
O1743      H1753   0.990       .  S
O1744      H1757   0.990       .  S
C1768      N1769   1.355       .  A
C1768      N1773   1.357       .  A
N1769      C1770   1.359       .  A
C1770      C1778   1.479       .  S
C1770      N1771   1.358       .  A
N1771      C1772   1.357       .  A
C1772      N1773   1.356       .  A
C1774      C1775   1.402       .  A
C1774      C1779   1.399       .  A
C1775      C1776   1.404       .  A
C1775      H2176   1.084       .  S
C1776      C1777   1.402       .  A
C1777      C1778   1.405       .  A
C1777      H1781   1.084       .  S
C1778      C1779   1.402       .  A
C1779      H1782   1.084       .  S
H1780      C2171   1.084   1_554  S
C1783      C1784   1.409       .  A
C1783      C1788   1.405       .  A
C1783      C1824   1.466       .  S
C1784      C1785   1.406       .  A
C1784      H1789   1.084       .  S
C1785      C1786   1.399       .  A
C1786      C1787   1.395       .  A
C1786      H1790   1.086       .  S
C1787      C1788   1.397       .  A
C1787      C1873   1.469       .  S
C1788      H1791   1.084       .  S
C1792      C1793   1.406       .  A
C1792      C1797   1.408       .  A
C1792      C1829   1.468       .  S
C1793      C1794   1.398       .  A
C1793      H1798   1.085       .  S
C1794      C1795   1.397       .  A
C1794      C1966   1.474       .  S
C1795      C1796   1.403       .  A
C1795      H1799   1.085       .  S
C1796      C1797   1.407       .  A
C1797      H1800   1.083       .  S
Zr1801     O1802   2.442       .  S
Zr1801     O1803   2.457       .  S
Zr1801     O1804   2.440       .  S
Zr1801     O2203   2.442       .  S
Zr1801     O1809   2.379       .  S
Zr1801     O1810   2.388       .  S
O1802      H1858   0.991       .  S
O1802      H1866   0.990       .  S
O1803      C1823   1.285       .  A
O1804      C1825   1.283       .  A
O1805      C1824   1.282       .  A
O1806      C1825   1.282       .  A
O1807     Zr2197   2.442   1_554  S
O1807      C1824   1.285       .  A
O1808     Zr1816   2.392       .  S
O1808      C1823   1.277       .  A
O1809     Zr1816   2.380       .  S
O1810     Zr1816   2.380       .  S
O1810      H1845   0.966       .  S
O1811     Zr1814   2.400       .  S
O1811     Zr1831   2.384       .  S
O1811      H1848   0.965       .  S
O1812     Zr1815   2.386   1_556  S
O1812     Zr2227   2.387       .  S
Zr1813     O1838   2.442       .  S
Zr1813     O1832   2.456       .  S
Zr1813     O1840   2.449       .  S
Zr1813     O1828   2.454       .  S
Zr1813     O1819   2.407       .  S
Zr1813     O1820   2.411       .  S
Zr1813     O1821   2.384       .  S
Zr1813     O1822   2.387       .  S
Zr1814     O1833   2.436       .  S
Zr1814     O1826   2.433       .  S
Zr1814     O1827   2.428       .  S
Zr1814     O1820   2.395       .  S
Zr1814     O1821   2.398       .  S
Zr1815     O1817   2.435       .  S
Zr1815     O1841   2.415       .  S
Zr1815     O2215   2.395   1_554  S
Zr1815     O2218   2.395   1_554  S
Zr1816     O1842   2.435       .  S
Zr1816     O1843   2.432       .  S
Zr1816     O1818   2.438       .  S
O1817      H1854   0.990       .  S
O1818      H1849   0.990       .  S
O1818      H1863   0.990       .  S
O1819     Zr2211   2.395       .  S
O1820      H1846   0.964       .  S
O1821     Zr1831   2.381       .  S
O1822     Zr2211   2.395       .  S
O1822     Zr1831   2.372       .  S
O1822      H2243   0.966       .  S
C1825      C1867   1.457       .  S
O1827      C1829   1.283       .  A
O1828      C1829   1.288       .  A
O1830     Zr2227   2.435   1_554  S
O1830      H1859   0.991       .  S
Zr1831     O2226   2.435       .  S
Zr1831     O1834   2.437       .  S
Zr1831     O2231   2.440       .  S
Zr1831     O1836   2.399       .  S
Zr1831     O2208   2.387       .  S
O1832      C1837   1.285       .  A
O1833      H1850   0.991       .  S
O1833      H1865   0.990       .  S
O1834      H1851   0.990       .  S
O1835     Zr2227   2.440   1_554  S
O1835      H1855   0.990       .  S
O1835      H1864   0.990       .  S
O1836      C1837   1.277       .  A
O1838      H1857   0.992       .  S
O1838      H1861   0.989       .  S
O1839      H1853   0.990       .  S
O1839      H1860   0.990       .  S
O1840      C2240   1.285       .  A
O1841      C1844   1.280       .  A
O1842      H1852   0.990       .  S
C1844      C1979   1.460       .  S
C1844      O2236   1.285   1_554  A
H1847      O2218   0.966   1_554  S
C1867      N1868   1.357       .  A
C1867      N1872   1.355       .  A
N1868      C1869   1.356       .  A
C1869      C1943   1.460       .  S
C1869      N1870   1.357       .  A
N1870      C1871   1.358       .  A
C1871      C1875   1.479       .  S
C1871      N1872   1.359       .  A
C1873      C1874   1.399       .  A
C1873      C1878   1.402       .  A
C1874      C1875   1.402       .  A
C1874      H1879   1.084       .  S
C1875      C1876   1.405       .  A
C1876      C1877   1.402       .  A
C1876      H1880   1.084       .  S
C1877      C1878   1.404       .  A
C1877      C1884   1.473       .  S
C1878      H1881   1.084       .  S
C1882      C1883   1.405       .  A
C1882      C2679   1.408       .  A
C1882      C1928   1.468       .  S
C1883      C1884   1.398       .  A
C1883      H1888   1.085       .  S
C1884      C1885   1.396       .  A
C1885      C1886   1.402       .  A
C1885      H1889   1.085       .  S
C1886      C2679   1.407       .  A
C1887      C2674   1.408       .  A
C1887      C2678   1.407       .  A
C1887      H1890   1.083       .  S
C1891      C2684   1.409       .  A
C1891      C1896   1.405       .  A
C1891      C1923   1.465       .  S
C1892      C2683   1.409       .  A
C1892      C2685   1.406       .  A
C1892      H1897   1.084       .  S
C1893      C2684   1.406       .  A
C1893      C1894   1.400       .  A
C1894      C1895   1.395       .  A
C1894      H1898   1.085       .  S
C1895      C1896   1.397       .  A
C1895      C1970   1.469       .  S
C1896      H1899   1.084       .  S
Zr1900     O1901   2.443       .  S
Zr1900     O1902   2.458       .  S
Zr1900     O1903   2.439       .  S
Zr1900     O1906   2.441       .  S
Zr1900     O1908   2.379       .  S
Zr1900     O2701   2.388       .  S
Zr1900     O1910   2.418       .  S
Zr1900     O1911   2.402       .  S
O1901      H1957   0.991       .  S
O1901      H1965   0.990       .  S
O1902      C2714   1.285       .  A
O1903      C2320   1.283       .  A
O1904     Zr1914   2.426   1_565  S
O1904      C2715   1.282       .  A
O1905     Zr1913   2.424       .  S
O1905      C1924   1.282       .  A
O1906      C1923   1.285       .  A
O1907     Zr1915   2.392       .  S
O1907      C1922   1.277       .  A
O1908     Zr2309   2.395       .  S
O1908     Zr2707   2.380       .  S
O1909     Zr2692   2.388   1_545  S
O1909     Zr1914   2.394       .  S
O1909     Zr1915   2.379       .  S
O1909      H1944   0.966       .  S
O1910     Zr2309   2.400       .  S
O1910      H1947   0.965       .  S
O1911     Zr2706   2.385       .  S
Zr1912     O1937   2.442       .  S
Zr1912     O1931   2.457       .  S
Zr1912     O1939   2.449       .  S
Zr1912     O2323   2.454       .  S
Zr1912     O2712   2.384   1_545  S
Zr1912     O1921   2.387       .  S
Zr1913     O1925   2.433       .  S
Zr1913     O2304   2.395       .  S
Zr1913     O2306   2.400   1_554  S
Zr1913     O2711   2.395   1_554  S
Zr1914     O1916   2.435       .  S
Zr1914     O1938   2.436       .  S
Zr1914     O2703   2.385   1_545  S
Zr1914     O1918   2.395       .  S
Zr1915     O1941   2.434       .  S
Zr1915     O2338   2.432       .  S
Zr1915     O2313   2.438       .  S
Zr1915     O2700   2.380   1_545  S
Zr1915     O1918   2.388       .  S
Zr1915     O2315   2.374       .  S
O1916      H1953   0.990       .  S
O1917     Zr2311   2.438   1_554  S
O1917      H1948   0.990       .  S
O1917      H1962   0.990       .  S
O1919     Zr2705   2.395   1_546  S
O1919     Zr2311   2.374       .  S
O1919      H1945   0.964   1_656  S
O1920     Zr2704   2.384       .  S
O1920     Zr1930   2.381       .  S
O1921     Zr2722   2.372   1_545  S
O1921      H1946   0.966       .  S
C1922      O2694   1.285   1_545  A
C1923      O2696   1.282       .  A
C1924      C1975   1.456       .  S
C1924      O2299   1.283   1_554  A
O1925      H1961   0.990       .  S
O1926      C2720   1.283       .  A
O1927     Zr2308   2.454   1_554  S
O1927      C1928   1.288       .  A
C1928      O2718   1.283   1_545  A
Zr1930     O1933   2.437       .  S
Zr1930     O1934   2.440       .  S
Zr1930     O1935   2.399       .  S
Zr1930     O2713   2.372       .  S
O1931      C2728   1.285   1_545  A
O1932      H1949   0.991       .  S
O1932      H1964   0.990       .  S
O1933      H1950   0.990       .  S
O1934      H1954   0.990       .  S
O1934      H1963   0.990       .  S
O1935      C1936   1.278       .  A
C1936      O2723   1.285       .  A
O1937      H1956   0.992       .  S
O1937      H2356   0.989       .  S
O1938      H1952   0.990       .  S
O1938      H1959   0.990       .  S
O1939      C1943   1.285       .  A
O1940      C1943   1.280       .  A
O1941      H1951   0.990       .  S
O1942     Zr2311   2.432   1_554  S
O1942      H1955   0.990   1_554  S
H1960      O2333   0.989       .  S
C1966      C1967   1.402       .  A
C1966      C1971   1.404       .  A
C1967      C1968   1.405       .  A
C1967      H1972   1.084       .  S
C1968      C1969   1.402       .  A
C1968      C1977   1.479       .  S
C1969      C1970   1.398       .  A
C1969      H1973   1.084       .  S
C1970      C1971   1.403       .  A
C1971      H1974   1.084       .  S
C1975      N1976   1.355       .  A
C1975      N2376   1.357       .  A
N1976      C1977   1.359       .  A
C1977      N1978   1.358       .  A
N1978      C1979   1.356       .  A
C1979      N2376   1.356       .  A
N1980      C2371   1.357       .  A
N1980      C2375   1.356       .  A
C1981      C1982   1.405       .  A
C1981      C1986   1.409       .  A
C1981      C2022   1.465       .  S
C1982      C1983   1.397       .  A
C1982      H1987   1.084       .  S
C1983      C1984   1.395       .  A
C1983      C2065   1.469       .  S
C1984      C1985   1.399       .  A
C1984      H1988   1.085       .  S
C1985      C1986   1.406       .  A
C1985      C2219   1.469       .  S
C1986      H1989   1.084       .  S
C1990      C1991   1.408       .  A
C1990      C2027   1.468       .  S
C1991      H1996   1.083       .  S
C1992      C1993   1.403       .  A
C1992      C2233   1.471       .  S
C1993      C1994   1.397       .  A
C1993      H1997   1.085       .  S
C1994      C1995   1.398   1_556  A
C1994      C2172   1.473       .  S
Zr1999     O2000   2.443       .  S
Zr1999     O2001   2.457       .  S
Zr1999     O2002   2.438       .  S
Zr1999     O2005   2.441       .  S
Zr1999     O2007   2.379       .  S
Zr1999     O2008   2.388       .  S
Zr1999     O2009   2.419       .  S
Zr1999     O2010   2.402       .  S
O2000      H2056   0.991       .  S
O2000      H2064   0.990       .  S
O2001      C2021   1.285       .  A
O2002      C2023   1.283       .  A
O2003     Zr2013   2.426       .  S
O2003      C2022   1.282       .  A
O2004     Zr2012   2.425       .  S
O2004      C2023   1.282       .  A
O2005      C2022   1.285       .  A
O2006     Zr2014   2.393       .  S
O2006      C2021   1.277       .  A
O2007     Zr2012   2.395       .  S
O2007     Zr2014   2.380       .  S
O2008     Zr2013   2.394       .  S
O2008     Zr2014   2.379       .  S
O2008      H2043   0.966       .  S
O2009     Zr2012   2.400       .  S
O2009     Zr2029   2.384       .  S
O2009      H2046   0.965       .  S
O2010     Zr2013   2.385       .  S
O2010     Zr2029   2.387       .  S
Zr2011     O2036   2.442       .  S
Zr2011     O2030   2.457       .  S
Zr2011     O2038   2.448       .  S
Zr2011     O2026   2.454       .  S
Zr2011     O2017   2.407       .  S
Zr2011     O2018   2.411       .  S
Zr2011     O2019   2.384       .  S
Zr2011     O2020   2.387       .  S
Zr2012     O2031   2.436       .  S
Zr2012     O2024   2.433       .  S
Zr2012     O2025   2.428       .  S
Zr2012     O2018   2.395       .  S
Zr2012     O2019   2.398       .  S
Zr2013     O2015   2.435       .  S
Zr2013     O2037   2.436       .  S
Zr2013     O2039   2.416       .  S
Zr2013     O2017   2.394       .  S
Zr2013     O2020   2.395       .  S
Zr2014     O2040   2.434       .  S
Zr2014     O2041   2.432       .  S
Zr2014     O2016   2.438       .  S
Zr2014     O2017   2.388       .  S
Zr2014     O2018   2.374       .  S
O2015      H2052   0.990       .  S
O2016      H2047   0.990       .  S
O2016      H2061   0.990       .  S
O2018      H2044   0.964       .  S
O2019     Zr2029   2.381       .  S
O2020     Zr2029   2.372       .  S
O2020      H2045   0.966       .  S
C2021      C2181   1.470       .  S
C2023      C2074   1.456       .  S
O2024      H2060   0.990       .  S
O2025      C2027   1.283       .  A
O2026      C2027   1.288       .  A
O2028     Zr2029   2.435       .  S
O2028      H2057   0.991       .  S
Zr2029     O2032   2.437       .  S
Zr2029     O2033   2.440       .  S
Zr2029     O2034   2.399       .  S
O2030      C2035   1.285       .  A
O2031      H2048   0.991       .  S
O2031      H2063   0.990       .  S
O2032      H2049   0.990       .  S
O2033      H2053   0.990       .  S
O2033      H2062   0.990       .  S
O2034      C2035   1.278       .  A
C2035      C2192   1.472       .  S
O2036      H2055   0.992       .  S
O2036      H2059   0.989       .  S
O2037      H2051   0.990       .  S
O2037      H2058   0.990       .  S
O2038      C2042   1.285       .  A
O2039      C2042   1.280       .  A
O2040      H2050   0.990       .  S
O2041      H2054   0.990       .  S
C2042      C2168   1.460       .  S
C2065      C2066   1.398       .  A
C2065      C2070   1.403       .  A
C2066      H2071   1.084       .  S
C2067      C2076   1.479       .  S
C2068      C2069   1.402       .  A
C2068      H2072   1.084       .  S
C2069      C2070   1.404       .  A
C2069      C2084   1.474       .  S
C2070      H2073   1.084       .  S
C2074      N2075   1.355       .  A
C2074      N2079   1.357       .  A
N2075      C2076   1.359       .  A
C2076      N2077   1.358       .  A
N2077      C2078   1.357       .  A
C2078      C2141   1.460       .  S
C2078      N2079   1.356       .  A
C2080      C2873   1.408       .  A
C2080      C2085   1.406       .  A
C2080      C2126   1.468       .  S
C2081      C2872   1.408       .  A
C2081      C2874   1.407       .  A
C2081      H2086   1.083   1_565  S
C2082      C2873   1.407       .  A
C2082      C2083   1.403       .  A
C2082      C2332   1.471       .  S
C2083      C2084   1.397       .  A
C2083      H2087   1.085       .  S
C2084      C2085   1.398       .  A
C2085      H2088   1.085       .  S
C2089      C2886   1.409       .  A
C2089      C2121   1.466       .  S
C2090      C2091   1.397   1_554  A
C2091      C2092   1.395       .  A
C2091      C2170   1.469       .  S
C2092      C2093   1.399       .  A
C2092      H2096   1.085       .  S
C2093      C2490   1.406   1_556  A
C2093      C2318   1.470       .  S
C2094      C2881   1.409       .  A
C2094      C2489   1.406       .  A
C2094      H2097   1.084       .  S
Zr2098     O2099   2.442       .  S
Zr2098     O2100   2.457   1_545  S
Zr2098     O2101   2.440       .  S
Zr2098     O2104   2.443       .  S
Zr2098     O2106   2.380   1_545  S
Zr2098     O2899   2.388   1_545  S
Zr2098     O2108   2.419       .  S
Zr2098     O2109   2.402       .  S
O2099      H2155   0.991       .  S
O2099      H2163   0.990       .  S
O2100      C2912   1.285       .  A
O2101      C2122   1.283       .  A
O2102     Zr2112   2.427       .  S
O2102      C2913   1.282       .  A
O2103     Zr2111   2.425       .  S
O2103      C2122   1.282       .  A
O2104      C2121   1.285       .  A
O2105     Zr2113   2.393       .  S
O2105      C2120   1.277       .  A
O2106     Zr2111   2.395   1_565  S
O2106     Zr2905   2.380       .  S
O2107     Zr2890   2.388       .  S
O2107     Zr2112   2.394       .  S
O2107     Zr2113   2.380       .  S
O2107      H2142   0.966       .  S
O2108     Zr2111   2.400       .  S
O2108     Zr2128   2.384       .  S
O2108      H2145   0.965       .  S
O2109     Zr2904   2.386   1_545  S
O2109     Zr2128   2.387       .  S
Zr2110     O2135   2.442       .  S
Zr2110     O2129   2.456       .  S
Zr2110     O2137   2.449       .  S
Zr2110     O2125   2.454       .  S
Zr2110     O2116   2.407       .  S
Zr2110     O2117   2.412       .  S
Zr2110     O2910   2.384       .  S
Zr2110     O2119   2.386       .  S
Zr2111     O2130   2.436       .  S
Zr2111     O2123   2.433       .  S
Zr2111     O2124   2.428   1_545  S
Zr2111     O2909   2.395   1_545  S
Zr2111     O2118   2.398       .  S
Zr2112     O2114   2.435       .  S
Zr2112     O2136   2.436       .  S
Zr2112     O2138   2.416       .  S
Zr2112     O2901   2.386       .  S
Zr2112     O2116   2.395       .  S
Zr2112     O2119   2.395       .  S
Zr2113     O2139   2.435       .  S
Zr2113     O2140   2.432       .  S
Zr2113     O2115   2.438       .  S
Zr2113     O2898   2.380       .  S
Zr2113     O2116   2.389       .  S
Zr2113     O2117   2.374       .  S
O2114      H2151   0.990       .  S
O2115      H2146   0.990       .  S
O2115      H2160   0.990       .  S
O2117     Zr2903   2.395       .  S
O2117      H2143   0.964       .  S
O2118     Zr2902   2.384   1_545  S
O2118     Zr2128   2.381       .  S
O2119     Zr2920   2.372       .  S
O2119      H2144   0.966       .  S
C2120      C2289   1.470       .  S
C2120      O2892   1.285       .  A
C2121      O2894   1.282   1_545  A
C2122      C2164   1.457       .  S
O2123      H2159   0.990   1_545  S
O2124      C2918   1.283       .  A
O2125      C2126   1.288       .  A
C2126      O2916   1.283       .  A
O2127     Zr2128   2.435       .  S
O2127      H2156   0.991       .  S
Zr2128     O2131   2.437       .  S
Zr2128     O2132   2.440       .  S
Zr2128     O2133   2.399       .  S
Zr2128     O2911   2.372   1_545  S
O2129      C2926   1.285       .  A
O2130      H2147   0.991       .  S
O2130      H2162   0.990       .  S
O2131      H2148   0.990       .  S
O2132      H2152   0.990       .  S
O2132      H2161   0.990       .  S
O2133      C2134   1.278       .  A
C2134      C2282   1.471       .  S
C2134      O2921   1.285   1_545  A
O2135      H2154   0.992       .  S
O2135      H2158   0.989       .  S
O2136      H2150   0.990       .  S
O2136      H2157   0.990       .  S
O2137      C2141   1.285       .  A
O2138      C2141   1.280       .  A
O2139      H2149   0.990       .  S
O2140      H2153   0.990       .  S
C2164      N2165   1.355       .  A
C2164      N2169   1.357       .  A
N2165      C2166   1.359       .  A
C2166      C2174   1.479       .  S
C2166      N2167   1.358       .  A
N2167      C2168   1.357       .  A
C2168      N2169   1.356       .  A
C2170      C2171   1.402       .  A
C2170      C2175   1.399       .  A
C2171      C2172   1.404       .  A
C2172      C2173   1.402       .  A
C2173      C2174   1.405       .  A
C2173      H2177   1.084       .  S
C2174      C2175   1.402       .  A
C2175      H2178   1.084       .  S
C2179      C2180   1.409       .  A
C2179      C2184   1.405       .  A
C2179      C2220   1.466       .  S
C2180      C2181   1.406       .  A
C2180      H2185   1.084       .  S
C2181      C2182   1.399       .  A
C2182      C2183   1.395       .  A
C2182      H2186   1.086       .  S
C2183      C2184   1.397       .  A
C2183      C2269   1.469       .  S
C2184      H2187   1.084       .  S
C2188      C2189   1.406       .  A
C2188      C2193   1.408       .  A
C2188      C2225   1.468       .  S
C2189      C2190   1.398       .  A
C2189      H2194   1.085       .  S
C2190      C2191   1.397       .  A
C2190      C2362   1.474       .  S
C2191      C2192   1.403       .  A
C2191      H2195   1.085       .  S
C2192      C2193   1.407       .  A
C2193      H2196   1.083       .  S
Zr2197     O2198   2.442       .  S
Zr2197     O2199   2.457       .  S
Zr2197     O2200   2.440       .  S
Zr2197     O2205   2.379       .  S
Zr2197     O2206   2.388       .  S
O2198      H2254   0.991       .  S
O2198      H2262   0.990       .  S
O2199      C2219   1.285       .  A
O2200      C2221   1.283       .  A
O2201      C2220   1.282       .  A
O2202      C2221   1.282       .  A
O2203      C2220   1.285       .  A
O2204     Zr2212   2.392       .  S
O2204      C2219   1.277       .  A
O2205     Zr2212   2.380       .  S
O2206     Zr2212   2.380       .  S
O2206      H2241   0.966       .  S
O2207     Zr2210   2.400       .  S
O2207     Zr2227   2.384       .  S
O2207      H2244   0.965       .  S
O2208     Zr2211   2.386       .  S
Zr2209     O2234   2.442       .  S
Zr2209     O2228   2.456       .  S
Zr2209     O2236   2.449       .  S
Zr2209     O2224   2.454       .  S
Zr2209     O2215   2.407       .  S
Zr2209     O2216   2.411       .  S
Zr2209     O2217   2.384       .  S
Zr2209     O2218   2.387       .  S
Zr2210     O2229   2.436       .  S
Zr2210     O2222   2.433       .  S
Zr2210     O2223   2.428       .  S
Zr2210     O2216   2.395       .  S
Zr2210     O2217   2.398       .  S
Zr2211     O2213   2.435       .  S
Zr2211     O2237   2.415       .  S
Zr2212     O2238   2.435       .  S
Zr2212     O2239   2.432       .  S
Zr2212     O2214   2.438       .  S
O2213      H2250   0.990       .  S
O2214      H2245   0.990       .  S
O2214      H2259   0.990       .  S
O2216      H2242   0.964       .  S
O2217     Zr2227   2.381       .  S
O2218     Zr2227   2.372       .  S
C2221      C2263   1.457       .  S
O2223      C2225   1.283       .  A
O2224      C2225   1.288       .  A
O2226      H2255   0.991       .  S
Zr2227     O2230   2.437       .  S
Zr2227     O2232   2.399       .  S
O2228      C2233   1.285       .  A
O2229      H2246   0.991       .  S
O2229      H2261   0.990       .  S
O2230      H2247   0.990       .  S
O2231      H2251   0.990       .  S
O2231      H2260   0.990       .  S
O2232      C2233   1.277       .  A
O2234      H2253   0.992       .  S
O2234      H2257   0.989       .  S
O2235      H2249   0.990       .  S
O2235      H2256   0.990       .  S
O2237      C2240   1.280       .  A
O2238      H2248   0.990       .  S
C2240      C2375   1.460       .  S
C2263      N2264   1.357       .  A
C2263      N2268   1.355       .  A
N2264      C2265   1.356       .  A
C2265      C2339   1.460       .  S
C2265      N2266   1.357       .  A
N2266      C2267   1.358       .  A
C2267      C2271   1.479       .  S
C2267      N2268   1.359       .  A
C2269      C2270   1.399       .  A
C2269      C2274   1.402       .  A
C2270      C2271   1.402       .  A
C2270      H2275   1.084       .  S
C2271      C2272   1.405       .  A
C2272      C2273   1.402       .  A
C2272      H2276   1.084       .  S
C2273      C2274   1.404       .  A
C2273      C2280   1.473       .  S
C2274      H2277   1.084       .  S
C2278      C2279   1.405       .  A
C2278      C3075   1.408       .  A
C2278      C2324   1.468       .  S
C2279      C2280   1.398       .  A
C2279      H2284   1.085       .  S
C2280      C2281   1.396       .  A
C2281      C2282   1.402       .  A
C2281      H2285   1.085       .  S
C2282      C3075   1.407       .  A
C2283      C3070   1.408       .  A
C2283      C3074   1.407       .  A
C2283      H2286   1.083       .  S
C2287      C3080   1.409       .  A
C2287      C2292   1.405       .  A
C2287      C2319   1.465       .  S
C2288      C3079   1.409       .  A
C2288      C3081   1.406       .  A
C2288      H2293   1.084       .  S
C2289      C3080   1.406       .  A
C2289      C2290   1.400       .  A
C2290      C2291   1.395       .  A
C2290      H2294   1.085       .  S
C2291      C2292   1.397       .  A
C2291      C2366   1.469       .  S
C2292      H2295   1.084       .  S
Zr2296     O2297   2.443       .  S
Zr2296     O2298   2.458       .  S
Zr2296     O2299   2.439       .  S
Zr2296     O2302   2.441       .  S
Zr2296     O2304   2.379   1_556  S
Zr2296     O3097   2.388       .  S
Zr2296     O2306   2.418       .  S
Zr2296     O2307   2.402       .  S
O2297      H2353   0.991       .  S
O2297      H2361   0.990       .  S
O2298      C3110   1.285       .  A
O2300     Zr2310   2.426   1_565  S
O2300      C3111   1.282       .  A
O2301     Zr2309   2.424       .  S
O2301      C2320   1.282       .  A
O2302      C2319   1.285       .  A
O2303     Zr2311   2.392       .  S
O2303      C2318   1.277       .  A
O2304     Zr3103   2.380   1_554  S
O2305     Zr3088   2.388   1_545  S
O2305     Zr2310   2.394       .  S
O2305     Zr2311   2.379       .  S
O2305      H2340   0.966       .  S
O2306      H2343   0.965       .  S
O2307     Zr3102   2.385       .  S
Zr2308     O2333   2.442       .  S
Zr2308     O2327   2.457       .  S
Zr2308     O2335   2.449       .  S
Zr2308     O3108   2.384   1_545  S
Zr2308     O2317   2.387       .  S
Zr2309     O2321   2.433       .  S
Zr2309     O3107   2.395       .  S
Zr2310     O2312   2.435       .  S
Zr2310     O2334   2.436       .  S
Zr2310     O3099   2.385   1_545  S
Zr2310     O2314   2.395       .  S
Zr2311     O2337   2.434       .  S
Zr2311     O3096   2.380   1_546  S
Zr2311     O2314   2.388       .  S
O2312      H2349   0.990       .  S
O2313      H2344   0.990       .  S
O2313      H2358   0.990       .  S
O2315     Zr3101   2.395   1_545  S
O2315      H2341   0.964   1_655  S
O2316     Zr3100   2.384       .  S
O2316     Zr2326   2.381       .  S
O2317     Zr3118   2.372   1_545  S
O2317      H2342   0.966       .  S
C2318      O3090   1.285   1_545  A
C2319      O3092   1.282       .  A
C2320      C2371   1.456       .  S
O2321      H2357   0.990       .  S
O2322      C3116   1.283       .  A
O2323      C2324   1.288       .  A
C2324      O3114   1.283   1_545  A
Zr2326     O2329   2.437       .  S
Zr2326     O2330   2.440       .  S
Zr2326     O2331   2.399       .  S
Zr2326     O3109   2.372       .  S
O2327      C3124   1.285   1_545  A
O2328      H2345   0.991       .  S
O2328      H2360   0.990       .  S
O2329      H2346   0.990       .  S
O2330      H2350   0.990       .  S
O2330      H2359   0.990       .  S
O2331      C2332   1.278       .  A
C2332      O3119   1.285       .  A
O2333      H2352   0.992       .  S
O2334      H2348   0.990       .  S
O2334      H2355   0.990       .  S
O2335      C2339   1.285       .  A
O2336      C2339   1.280       .  A
O2337      H2347   0.990       .  S
O2338      H2351   0.990       .  S
C2362      C2363   1.402       .  A
C2362      C2367   1.404       .  A
C2363      C2364   1.405       .  A
C2363      H2368   1.084       .  S
C2364      C2365   1.402       .  A
C2364      C2373   1.479       .  S
C2365      C2366   1.398       .  A
C2365      H2369   1.084       .  S
C2366      C2367   1.403       .  A
C2367      H2370   1.084       .  S
C2371      N2372   1.355       .  A
N2372      C2373   1.359       .  A
C2373      N2374   1.358       .  A
N2374      C2375   1.356       .  A
C2377      C2378   1.405       .  A
C2377      C2382   1.409       .  A
C2377      C2418   1.465       .  S
C2378      C2379   1.397       .  A
C2378      H2383   1.084       .  S
C2379      C2380   1.395       .  A
C2379      C2461   1.469       .  S
C2380      C2381   1.399       .  A
C2380      H2384   1.085       .  S
C2381      C2382   1.406       .  A
C2381      C2615   1.469       .  S
C2382      H2385   1.084       .  S
C2386      C2387   1.408       .  A
C2386      C2787   1.405       .  A
C2386      C2423   1.468       .  S
C2387      C2784   1.407   1_554  A
C2387      H2392   1.083       .  S
C2388      C2783   1.407       .  A
C2388      C2389   1.403       .  A
C2388      C2629   1.471       .  S
C2389      C2390   1.397       .  A
C2389      H2393   1.085       .  S
C2390      C2391   1.398       .  A
C2390      C2568   1.473       .  S
C2391      C2782   1.405       .  A
C2391      H2790   1.085       .  S
H2394      C2787   1.085       .  S
Zr2395     O2396   2.443       .  S
Zr2395     O2397   2.457       .  S
Zr2395     O2398   2.438       .  S
Zr2395     O2401   2.441       .  S
Zr2395     O2403   2.379       .  S
Zr2395     O2404   2.388       .  S
Zr2395     O2405   2.419       .  S
Zr2395     O2406   2.402       .  S
O2396      H2452   0.991       .  S
O2396      H2460   0.990       .  S
O2397      C2417   1.285       .  A
O2398      C2419   1.283       .  A
O2399     Zr2409   2.426       .  S
O2399      C2418   1.282       .  A
O2400     Zr2408   2.425       .  S
O2400      C2419   1.282       .  A
O2401      C2418   1.285       .  A
O2402     Zr2410   2.393       .  S
O2402      C2417   1.277       .  A
O2403     Zr2408   2.395       .  S
O2403     Zr2410   2.380       .  S
O2404     Zr2409   2.394       .  S
O2404     Zr2410   2.379       .  S
O2404      H2439   0.966       .  S
O2405     Zr2408   2.400       .  S
O2405     Zr2425   2.384       .  S
O2405      H2442   0.965       .  S
O2406     Zr2409   2.385       .  S
O2406     Zr2425   2.387       .  S
Zr2407     O2432   2.442       .  S
Zr2407     O2426   2.457       .  S
Zr2407     O2434   2.448       .  S
Zr2407     O2422   2.454       .  S
Zr2407     O2413   2.407       .  S
Zr2407     O2414   2.411       .  S
Zr2407     O2415   2.384       .  S
Zr2407     O2416   2.387       .  S
Zr2408     O2427   2.436       .  S
Zr2408     O2420   2.433       .  S
Zr2408     O2421   2.428       .  S
Zr2408     O2414   2.395       .  S
Zr2408     O2415   2.398       .  S
Zr2409     O2411   2.435       .  S
Zr2409     O2433   2.436       .  S
Zr2409     O2435   2.416       .  S
Zr2409     O2413   2.394       .  S
Zr2409     O2416   2.395       .  S
Zr2410     O2436   2.434       .  S
Zr2410     O2437   2.432       .  S
Zr2410     O2412   2.438       .  S
Zr2410     O2413   2.388       .  S
Zr2410     O2414   2.374       .  S
O2411      H2448   0.990       .  S
O2412      H2443   0.990       .  S
O2412      H2457   0.990       .  S
O2414      H2440   0.964       .  S
O2415     Zr2425   2.381       .  S
O2416     Zr2425   2.372       .  S
O2416      H2441   0.966       .  S
C2417      C2577   1.470       .  S
C2419      C2470   1.456       .  S
O2420      H2456   0.990       .  S
O2421      C2423   1.283       .  A
O2422      C2423   1.288       .  A
O2424     Zr2425   2.435       .  S
O2424      H2453   0.991       .  S
Zr2425     O2428   2.437       .  S
Zr2425     O2429   2.440       .  S
Zr2425     O2430   2.399       .  S
O2426      C2431   1.285       .  A
O2427      H2444   0.991       .  S
O2427      H2459   0.990       .  S
O2428      H2445   0.990       .  S
O2429      H2449   0.990       .  S
O2429      H2458   0.990       .  S
O2430      C2431   1.278       .  A
C2431      C2588   1.472       .  S
O2432      H2451   0.992       .  S
O2432      H2455   0.989       .  S
O2433      H2447   0.990       .  S
O2433      H2454   0.990       .  S
O2434      C2438   1.285       .  A
O2435      C2438   1.280       .  A
O2436      H2446   0.990       .  S
O2437      H2450   0.990       .  S
C2438      C2564   1.460       .  S
C2461      C2462   1.398       .  A
C2461      C2466   1.403       .  A
C2462      C2859   1.402       .  A
C2462      H2467   1.084       .  S
C2463      C2858   1.402       .  A
C2463      C2860   1.405       .  A
C2463      C2472   1.479   1_556  S
C2464      C2859   1.405       .  A
C2464      C2465   1.402       .  A
C2464      H2468   1.084       .  S
C2465      C2466   1.404       .  A
C2465      C2480   1.474       .  S
C2466      H2469   1.084       .  S
C2470      N2471   1.355       .  A
C2470      N2475   1.357       .  A
N2471      C2472   1.359       .  A
C2472      N2473   1.358       .  A
N2473      C2474   1.357       .  A
C2474      C2537   1.460       .  S
C2474      N2475   1.356       .  A
C2476      C2481   1.406       .  A
C2476      C2522   1.468       .  S
C2477      H2482   1.083       .  S
C2478      C2479   1.403       .  A
C2478      C2728   1.471       .  S
C2479      C2480   1.397       .  A
C2479      H2483   1.085       .  S
C2480      C2481   1.398       .  A
C2481      H2484   1.085       .  S
C2485      C2882   1.405       .  A
C2485      C2517   1.466       .  S
C2486      C2881   1.405       .  A
C2486      C2487   1.397       .  A
C2486      H2887   1.084       .  S
C2487      C2488   1.395       .  A
C2487      C2566   1.469       .  S
C2488      C2489   1.399       .  A
C2488      H2492   1.085       .  S
C2489      C2714   1.470       .  S
C2490      H2493   1.084   1_545  S
H2491      C2882   1.084       .  S
Zr2494     O2495   2.442       .  S
Zr2494     O2496   2.457       .  S
Zr2494     O2497   2.440       .  S
Zr2494     O2500   2.443       .  S
Zr2494     O2502   2.380       .  S
Zr2494     O2504   2.419       .  S
Zr2494     O2505   2.402       .  S
O2495      H2551   0.991       .  S
O2495      H2559   0.990       .  S
O2497      C2518   1.283       .  A
O2498     Zr2508   2.427       .  S
O2499     Zr2507   2.425       .  S
O2499      C2518   1.282       .  A
O2500      C2517   1.285       .  A
O2501     Zr2509   2.393       .  S
O2501      C2516   1.277       .  A
O2502     Zr2507   2.395       .  S
O2503     Zr2508   2.394       .  S
O2503     Zr2509   2.380       .  S
O2503      H2538   0.966       .  S
O2504     Zr2507   2.400       .  S
O2504     Zr2524   2.384       .  S
O2504      H2541   0.965       .  S
O2505     Zr2524   2.387       .  S
Zr2506     O2531   2.442       .  S
Zr2506     O2525   2.456       .  S
Zr2506     O2533   2.449       .  S
Zr2506     O2521   2.454       .  S
Zr2506     O2512   2.407       .  S
Zr2506     O2513   2.412       .  S
Zr2506     O2515   2.386       .  S
Zr2507     O2526   2.436       .  S
Zr2507     O2519   2.433       .  S
Zr2507     O2520   2.428       .  S
Zr2507     O2514   2.398       .  S
Zr2508     O2510   2.435       .  S
Zr2508     O2532   2.436       .  S
Zr2508     O2534   2.416       .  S
Zr2508     O2512   2.395       .  S
Zr2508     O2515   2.395       .  S
Zr2509     O2535   2.435       .  S
Zr2509     O2536   2.432       .  S
Zr2509     O2511   2.438       .  S
Zr2509     O2512   2.389       .  S
Zr2509     O2513   2.374       .  S
O2510      H2547   0.990       .  S
O2511      H2542   0.990       .  S
O2511      H2556   0.990       .  S
O2513      H2539   0.964       .  S
O2514     Zr2524   2.381       .  S
O2515      H2540   0.966       .  S
C2516      C2685   1.470       .  S
C2518      C2560   1.457       .  S
O2519      H2555   0.990       .  S
O2521      C2522   1.288       .  A
O2523     Zr2524   2.435       .  S
O2523      H2552   0.991       .  S
Zr2524     O2527   2.437       .  S
Zr2524     O2528   2.440       .  S
Zr2524     O2529   2.399       .  S
O2526      H2543   0.991       .  S
O2526      H2558   0.990       .  S
O2527      H2544   0.990       .  S
O2528      H2548   0.990       .  S
O2528      H2557   0.990       .  S
O2529      C2530   1.278       .  A
C2530      C2678   1.471       .  S
O2531      H2550   0.992       .  S
O2531      H2554   0.989       .  S
O2532      H2546   0.990       .  S
O2532      H2553   0.990       .  S
O2533      C2537   1.285       .  A
O2534      C2537   1.280       .  A
O2535      H2545   0.990       .  S
O2536      H2549   0.990       .  S
C2560      N2561   1.355       .  A
C2560      N2565   1.357       .  A
N2561      C2562   1.359       .  A
C2562      C2570   1.479       .  S
C2562      N2563   1.358       .  A
N2563      C2564   1.357       .  A
C2564      N2565   1.356       .  A
C2566      C2567   1.402       .  A
C2566      C2571   1.399       .  A
C2567      C2568   1.404       .  A
C2567      H2968   1.084       .  S
C2568      C2569   1.402       .  A
C2569      C2570   1.405       .  A
C2569      H2573   1.084       .  S
C2570      C2571   1.402       .  A
C2571      H2574   1.084       .  S
H2572      C2963   1.084   1_554  S
C2575      C2576   1.409       .  A
C2575      C2580   1.405       .  A
C2575      C2616   1.466       .  S
C2576      C2577   1.406       .  A
C2576      H2581   1.084       .  S
C2577      C2578   1.399       .  A
C2578      C2579   1.395       .  A
C2578      H2582   1.086       .  S
C2579      C2580   1.397       .  A
C2579      C2665   1.469       .  S
C2580      H2583   1.084       .  S
C2584      C2585   1.406       .  A
C2584      C2589   1.408       .  A
C2584      C2621   1.468       .  S
C2585      C2586   1.398       .  A
C2585      H2590   1.085       .  S
C2586      C2587   1.397       .  A
C2586      C2758   1.474       .  S
C2587      C2588   1.403       .  A
C2587      H2591   1.085       .  S
C2588      C2589   1.407       .  A
C2589      H2592   1.083       .  S
Zr2593     O2594   2.442       .  S
Zr2593     O2595   2.457       .  S
Zr2593     O2596   2.440       .  S
Zr2593     O2995   2.442       .  S
Zr2593     O2601   2.379       .  S
Zr2593     O2602   2.388       .  S
O2594      H2650   0.991       .  S
O2594      H2658   0.990       .  S
O2595      C2615   1.285       .  A
O2596      C2617   1.283       .  A
O2597      C2616   1.282       .  A
O2598      C2617   1.282       .  A
O2599     Zr2989   2.442   1_554  S
O2599      C2616   1.285       .  A
O2600     Zr2608   2.392       .  S
O2600      C2615   1.277       .  A
O2601     Zr2608   2.380       .  S
O2602     Zr2608   2.380       .  S
O2602      H2637   0.966       .  S
O2603     Zr2606   2.400       .  S
O2603     Zr2623   2.384       .  S
O2603      H2640   0.965       .  S
O2604     Zr2607   2.386   1_556  S
O2604     Zr3019   2.387       .  S
Zr2605     O2630   2.442       .  S
Zr2605     O2624   2.456       .  S
Zr2605     O2632   2.449       .  S
Zr2605     O2620   2.454       .  S
Zr2605     O2611   2.407       .  S
Zr2605     O2612   2.411       .  S
Zr2605     O2613   2.384       .  S
Zr2605     O2614   2.387       .  S
Zr2606     O2625   2.436       .  S
Zr2606     O2618   2.433       .  S
Zr2606     O2619   2.428       .  S
Zr2606     O2612   2.395       .  S
Zr2606     O2613   2.398       .  S
Zr2607     O2609   2.435       .  S
Zr2607     O2633   2.415       .  S
Zr2607     O3007   2.395   1_554  S
Zr2607     O3010   2.395   1_554  S
Zr2608     O2634   2.435       .  S
Zr2608     O2635   2.432       .  S
Zr2608     O2610   2.438       .  S
O2609      H2646   0.990       .  S
O2610      H2641   0.990       .  S
O2610      H2655   0.990       .  S
O2611     Zr3003   2.395       .  S
O2612      H2638   0.964       .  S
O2613     Zr2623   2.381       .  S
O2614     Zr3003   2.395       .  S
O2614     Zr2623   2.372       .  S
O2614      H3035   0.966       .  S
C2617      C2659   1.457       .  S
O2619      C2621   1.283       .  A
O2620      C2621   1.288       .  A
O2622     Zr3019   2.435   1_554  S
O2622      H2651   0.991       .  S
Zr2623     O3018   2.435       .  S
Zr2623     O2626   2.437       .  S
Zr2623     O3023   2.440       .  S
Zr2623     O2628   2.399       .  S
Zr2623     O3000   2.387       .  S
O2624      C2629   1.285       .  A
O2625      H2642   0.991       .  S
O2625      H2657   0.990       .  S
O2626      H2643   0.990       .  S
O2627     Zr3019   2.440   1_554  S
O2627      H2647   0.990       .  S
O2627      H2656   0.990       .  S
O2628      C2629   1.277       .  A
O2630      H2649   0.992       .  S
O2630      H2653   0.989       .  S
O2631      H2645   0.990       .  S
O2631      H2652   0.990       .  S
O2632      C3032   1.285       .  A
O2633      C2636   1.280       .  A
O2634      H2644   0.990       .  S
C2636      C2771   1.460       .  S
C2636      O3028   1.285   1_554  A
H2639      O3010   0.966   1_554  S
C2659      N2660   1.357       .  A
C2659      N2664   1.355       .  A
N2660      C2661   1.356       .  A
C2661      C2735   1.460       .  S
C2661      N2662   1.357       .  A
N2662      C2663   1.358       .  A
C2663      C2667   1.479       .  S
C2663      N2664   1.359       .  A
C2665      C2666   1.399       .  A
C2665      C2670   1.402       .  A
C2666      C2667   1.402       .  A
C2666      H2671   1.084       .  S
C2667      C2668   1.405       .  A
C2668      C2669   1.402       .  A
C2668      H2672   1.084       .  S
C2669      C2670   1.404       .  A
C2669      C2676   1.473       .  S
C2670      H2673   1.084       .  S
C2674      C2675   1.405       .  A
C2674      C2720   1.468       .  S
C2675      C2676   1.398       .  A
C2675      H2680   1.085       .  S
C2676      C2677   1.396       .  A
C2677      C2678   1.402       .  A
C2677      H2681   1.085       .  S
C2679      H2682   1.083   1_545  S
C2683      C2688   1.405       .  A
C2683      C2715   1.465       .  S
C2684      H2689   1.084       .  S
C2685      C2686   1.400       .  A
C2686      C2687   1.395       .  A
C2686      H2690   1.085       .  S
C2687      C2688   1.397       .  A
C2687      C2762   1.469       .  S
C2688      H2691   1.084       .  S
Zr2692     O2693   2.443       .  S
Zr2692     O2694   2.458       .  S
Zr2692     O2695   2.439       .  S
Zr2692     O2698   2.441       .  S
Zr2692     O2700   2.379       .  S
Zr2692     O2702   2.418       .  S
Zr2692     O2703   2.402       .  S
O2693      H2749   0.991       .  S
O2693      H2757   0.990       .  S
O2695      C3112   1.283       .  A
O2696     Zr2706   2.426       .  S
O2697     Zr2705   2.424       .  S
O2697      C2716   1.282       .  A
O2698      C2715   1.285       .  A
O2699     Zr2707   2.392       .  S
O2699      C2714   1.277       .  A
O2700     Zr3101   2.395       .  S
O2701     Zr2706   2.394       .  S
O2701     Zr2707   2.379       .  S
O2701      H2736   0.966       .  S
O2702     Zr3101   2.400       .  S
O2702      H2739   0.965       .  S
Zr2704     O2729   2.442       .  S
Zr2704     O2723   2.457       .  S
Zr2704     O2731   2.449       .  S
Zr2704     O3115   2.454       .  S
Zr2704     O2713   2.387       .  S
Zr2705     O2717   2.433       .  S
Zr2705     O3096   2.395       .  S
Zr2705     O3098   2.400   1_554  S
Zr2706     O2708   2.435       .  S
Zr2706     O2730   2.436       .  S
Zr2706     O2710   2.395       .  S
Zr2707     O2733   2.434       .  S
Zr2707     O3130   2.432       .  S
Zr2707     O3105   2.438       .  S
Zr2707     O2710   2.388       .  S
Zr2707     O3107   2.374       .  S
O2708      H2745   0.990       .  S
O2709     Zr3103   2.438   1_554  S
O2709      H2740   0.990       .  S
O2709      H2754   0.990       .  S
O2711     Zr3103   2.374       .  S
O2711      H2737   0.964   1_656  S
O2712     Zr2722   2.381       .  S
O2713      H2738   0.966       .  S
C2716      C2767   1.456       .  S
C2716      O3091   1.283   1_554  A
O2717      H2753   0.990   1_565  S
O2719     Zr3100   2.454   1_554  S
O2719      C2720   1.288       .  A
Zr2722     O2725   2.437       .  S
Zr2722     O2726   2.440       .  S
Zr2722     O2727   2.399       .  S
O2724      H2741   0.991       .  S
O2724      H2756   0.990       .  S
O2725      H2742   0.990       .  S
O2726      H2746   0.990       .  S
O2726      H2755   0.990       .  S
O2727      C2728   1.278       .  A
O2729      H2748   0.992       .  S
O2729      H3148   0.989       .  S
O2730      H2744   0.990       .  S
O2730      H2751   0.990       .  S
O2731      C2735   1.285       .  A
O2732      C2735   1.280       .  A
O2733      H2743   0.990       .  S
O2734     Zr3103   2.432   1_554  S
O2734      H2747   0.990   1_554  S
H2752      O3125   0.989       .  S
C2758      C2759   1.402       .  A
C2758      C2763   1.404       .  A
C2759      C2760   1.405       .  A
C2759      H2764   1.084       .  S
C2760      C2761   1.402       .  A
C2760      C2769   1.479       .  S
C2761      C2762   1.398       .  A
C2761      H2765   1.084       .  S
C2762      C2763   1.403       .  A
C2763      H2766   1.084       .  S
C2767      N2768   1.355       .  A
C2767      N3168   1.357       .  A
N2768      C2769   1.359       .  A
C2769      N2770   1.358       .  A
N2770      C2771   1.356       .  A
C2771      N3168   1.356       .  A
N2772      C3163   1.357       .  A
N2772      C3167   1.356       .  A
C2773      C2774   1.405       .  A
C2773      C2778   1.409       .  A
C2773      C2814   1.465       .  S
C2774      C2775   1.397       .  A
C2774      H2779   1.084       .  S
C2775      C2776   1.395       .  A
C2775      C2857   1.469       .  S
C2776      C2777   1.399       .  A
C2776      H2780   1.085       .  S
C2777      C2778   1.406       .  A
C2777      C3011   1.469       .  S
C2778      H2781   1.084       .  S
C2782      C2783   1.408       .  A
C2782      C2819   1.468       .  S
C2783      H2788   1.083       .  S
C2784      C2785   1.403       .  A
C2784      C3025   1.471       .  S
C2785      C2786   1.397       .  A
C2785      H2789   1.085       .  S
C2786      C2787   1.398   1_556  A
C2786      C2964   1.473       .  S
Zr2791     O2792   2.443       .  S
Zr2791     O2793   2.457       .  S
Zr2791     O2794   2.438       .  S
Zr2791     O2797   2.441       .  S
Zr2791     O2799   2.379       .  S
Zr2791     O2800   2.388       .  S
Zr2791     O2801   2.419       .  S
Zr2791     O2802   2.402       .  S
O2792      H2848   0.991       .  S
O2792      H2856   0.990       .  S
O2793      C2813   1.285       .  A
O2794      C2815   1.283       .  A
O2795     Zr2805   2.426       .  S
O2795      C2814   1.282       .  A
O2796     Zr2804   2.425       .  S
O2796      C2815   1.282       .  A
O2797      C2814   1.285       .  A
O2798     Zr2806   2.393       .  S
O2798      C2813   1.277       .  A
O2799     Zr2804   2.395       .  S
O2799     Zr2806   2.380       .  S
O2800     Zr2805   2.394       .  S
O2800     Zr2806   2.379       .  S
O2800      H2835   0.966       .  S
O2801     Zr2804   2.400       .  S
O2801     Zr2821   2.384       .  S
O2801      H2838   0.965       .  S
O2802     Zr2805   2.385       .  S
O2802     Zr2821   2.387       .  S
Zr2803     O2828   2.442       .  S
Zr2803     O2822   2.457       .  S
Zr2803     O2830   2.448       .  S
Zr2803     O2818   2.454       .  S
Zr2803     O2809   2.407       .  S
Zr2803     O2810   2.411       .  S
Zr2803     O2811   2.384       .  S
Zr2803     O2812   2.387       .  S
Zr2804     O2823   2.436       .  S
Zr2804     O2816   2.433       .  S
Zr2804     O2817   2.428       .  S
Zr2804     O2810   2.395       .  S
Zr2804     O2811   2.398       .  S
Zr2805     O2807   2.435       .  S
Zr2805     O2829   2.436       .  S
Zr2805     O2831   2.416       .  S
Zr2805     O2809   2.394       .  S
Zr2805     O2812   2.395       .  S
Zr2806     O2832   2.434       .  S
Zr2806     O2833   2.432       .  S
Zr2806     O2808   2.438       .  S
Zr2806     O2809   2.388       .  S
Zr2806     O2810   2.374       .  S
O2807      H2844   0.990       .  S
O2808      H2839   0.990       .  S
O2808      H2853   0.990       .  S
O2810      H2836   0.964       .  S
O2811     Zr2821   2.381       .  S
O2812     Zr2821   2.372       .  S
O2812      H2837   0.966       .  S
C2813      C2973   1.470       .  S
C2815      C2866   1.456       .  S
O2816      H2852   0.990       .  S
O2817      C2819   1.283       .  A
O2818      C2819   1.288       .  A
O2820     Zr2821   2.435       .  S
O2820      H2849   0.991       .  S
Zr2821     O2824   2.437       .  S
Zr2821     O2825   2.440       .  S
Zr2821     O2826   2.399       .  S
O2822      C2827   1.285       .  A
O2823      H2840   0.991       .  S
O2823      H2855   0.990       .  S
O2824      H2841   0.990       .  S
O2825      H2845   0.990       .  S
O2825      H2854   0.990       .  S
O2826      C2827   1.278       .  A
C2827      C2984   1.472       .  S
O2828      H2847   0.992       .  S
O2828      H2851   0.989       .  S
O2829      H2843   0.990       .  S
O2829      H2850   0.990       .  S
O2830      C2834   1.285       .  A
O2831      C2834   1.280       .  A
O2832      H2842   0.990       .  S
O2833      H2846   0.990       .  S
C2834      C2960   1.460       .  S
C2857      C2858   1.398       .  A
C2857      C2862   1.403       .  A
C2858      H2863   1.084       .  S
C2859      C2868   1.479       .  S
C2860      C2861   1.402       .  A
C2860      H2864   1.084       .  S
C2861      C2862   1.404       .  A
C2861      C2876   1.474       .  S
C2862      H2865   1.084       .  S
C2866      N2867   1.355       .  A
C2866      N2871   1.357       .  A
N2867      C2868   1.359       .  A
C2868      N2869   1.358       .  A
N2869      C2870   1.357       .  A
C2870      C2933   1.460       .  S
C2870      N2871   1.356       .  A
C2872      C2877   1.406       .  A
C2872      C2918   1.468       .  S
C2873      H2878   1.083       .  S
C2874      C2875   1.403       .  A
C2874      C3124   1.471       .  S
C2875      C2876   1.397       .  A
C2875      H2879   1.085       .  S
C2876      C2877   1.398       .  A
C2877      H2880   1.085       .  S
C2881      C2913   1.466       .  S
C2882      C2883   1.397   1_554  A
C2883      C2884   1.395       .  A
C2883      C2962   1.469       .  S
C2884      C2885   1.399       .  A
C2884      H2888   1.085       .  S
C2885      C3110   1.470       .  S
C2886      H2889   1.084   1_545  S
Zr2890     O2891   2.442       .  S
Zr2890     O2892   2.457       .  S
Zr2890     O2893   2.440       .  S
Zr2890     O2896   2.443       .  S
Zr2890     O2898   2.380       .  S
Zr2890     O2900   2.419       .  S
Zr2890     O2901   2.402       .  S
O2891      H2947   0.991       .  S
O2891      H2955   0.990       .  S
O2893      C2914   1.283       .  A
O2894     Zr2904   2.427       .  S
O2895     Zr2903   2.425       .  S
O2895      C2914   1.282       .  A
O2896      C2913   1.285       .  A
O2897     Zr2905   2.393       .  S
O2897      C2912   1.277       .  A
O2898     Zr2903   2.395       .  S
O2899     Zr2904   2.394       .  S
O2899     Zr2905   2.380       .  S
O2899      H2934   0.966       .  S
O2900     Zr2903   2.400       .  S
O2900     Zr2920   2.384       .  S
O2900      H2937   0.965       .  S
O2901     Zr2920   2.387       .  S
Zr2902     O2927   2.442       .  S
Zr2902     O2921   2.456       .  S
Zr2902     O2929   2.449       .  S
Zr2902     O2917   2.454       .  S
Zr2902     O2908   2.407       .  S
Zr2902     O2909   2.412       .  S
Zr2902     O2911   2.386       .  S
Zr2903     O2922   2.436       .  S
Zr2903     O2915   2.433       .  S
Zr2903     O2916   2.428       .  S
Zr2903     O2910   2.398       .  S
Zr2904     O2906   2.435       .  S
Zr2904     O2928   2.436       .  S
Zr2904     O2930   2.416       .  S
Zr2904     O2908   2.395       .  S
Zr2904     O2911   2.395       .  S
Zr2905     O2931   2.435       .  S
Zr2905     O2932   2.432       .  S
Zr2905     O2907   2.438       .  S
Zr2905     O2908   2.389       .  S
Zr2905     O2909   2.374       .  S
O2906      H2943   0.990       .  S
O2907      H2938   0.990       .  S
O2907      H2952   0.990       .  S
O2909      H2935   0.964       .  S
O2910     Zr2920   2.381       .  S
O2911      H2936   0.966       .  S
C2912      C3081   1.470       .  S
C2914      C2956   1.457       .  S
O2915      H2951   0.990       .  S
O2917      C2918   1.288       .  A
O2919     Zr2920   2.435       .  S
O2919      H2948   0.991       .  S
Zr2920     O2923   2.437       .  S
Zr2920     O2924   2.440       .  S
Zr2920     O2925   2.399       .  S
O2922      H2939   0.991       .  S
O2922      H2954   0.990       .  S
O2923      H2940   0.990       .  S
O2924      H2944   0.990       .  S
O2924      H2953   0.990       .  S
O2925      C2926   1.278       .  A
C2926      C3074   1.471       .  S
O2927      H2946   0.992       .  S
O2927      H2950   0.989       .  S
O2928      H2942   0.990       .  S
O2928      H2949   0.990       .  S
O2929      C2933   1.285       .  A
O2930      C2933   1.280       .  A
O2931      H2941   0.990       .  S
O2932      H2945   0.990       .  S
C2956      N2957   1.355       .  A
C2956      N2961   1.357       .  A
N2957      C2958   1.359       .  A
C2958      C2966   1.479       .  S
C2958      N2959   1.358       .  A
N2959      C2960   1.357       .  A
C2960      N2961   1.356       .  A
C2962      C2963   1.402       .  A
C2962      C2967   1.399       .  A
C2963      C2964   1.404       .  A
C2964      C2965   1.402       .  A
C2965      C2966   1.405       .  A
C2965      H2969   1.084       .  S
C2966      C2967   1.402       .  A
C2967      H2970   1.084       .  S
C2971      C2972   1.409       .  A
C2971      C2976   1.405       .  A
C2971      C3012   1.466       .  S
C2972      C2973   1.406       .  A
C2972      H2977   1.084       .  S
C2973      C2974   1.399       .  A
C2974      C2975   1.395       .  A
C2974      H2978   1.086       .  S
C2975      C2976   1.397       .  A
C2975      C3061   1.469       .  S
C2976      H2979   1.084       .  S
C2980      C2981   1.406       .  A
C2980      C2985   1.408       .  A
C2980      C3017   1.468       .  S
C2981      C2982   1.398       .  A
C2981      H2986   1.085       .  S
C2982      C2983   1.397       .  A
C2982      C3154   1.474       .  S
C2983      C2984   1.403       .  A
C2983      H2987   1.085       .  S
C2984      C2985   1.407       .  A
C2985      H2988   1.083       .  S
Zr2989     O2990   2.442       .  S
Zr2989     O2991   2.457       .  S
Zr2989     O2992   2.440       .  S
Zr2989     O2997   2.379       .  S
Zr2989     O2998   2.388       .  S
O2990      H3046   0.991       .  S
O2990      H3054   0.990       .  S
O2991      C3011   1.285       .  A
O2992      C3013   1.283       .  A
O2993      C3012   1.282       .  A
O2994      C3013   1.282       .  A
O2995      C3012   1.285       .  A
O2996     Zr3004   2.392       .  S
O2996      C3011   1.277       .  A
O2997     Zr3004   2.380       .  S
O2998     Zr3004   2.380       .  S
O2998      H3033   0.966       .  S
O2999     Zr3002   2.400       .  S
O2999     Zr3019   2.384       .  S
O2999      H3036   0.965       .  S
O3000     Zr3003   2.386       .  S
Zr3001     O3026   2.442       .  S
Zr3001     O3020   2.456       .  S
Zr3001     O3028   2.449       .  S
Zr3001     O3016   2.454       .  S
Zr3001     O3007   2.407       .  S
Zr3001     O3008   2.411       .  S
Zr3001     O3009   2.384       .  S
Zr3001     O3010   2.387       .  S
Zr3002     O3021   2.436       .  S
Zr3002     O3014   2.433       .  S
Zr3002     O3015   2.428       .  S
Zr3002     O3008   2.395       .  S
Zr3002     O3009   2.398       .  S
Zr3003     O3005   2.435       .  S
Zr3003     O3029   2.415       .  S
Zr3004     O3030   2.435       .  S
Zr3004     O3031   2.432       .  S
Zr3004     O3006   2.438       .  S
O3005      H3042   0.990       .  S
O3006      H3037   0.990       .  S
O3006      H3051   0.990       .  S
O3008      H3034   0.964       .  S
O3009     Zr3019   2.381       .  S
O3010     Zr3019   2.372       .  S
C3013      C3055   1.457       .  S
O3015      C3017   1.283       .  A
O3016      C3017   1.288       .  A
O3018      H3047   0.991       .  S
Zr3019     O3022   2.437       .  S
Zr3019     O3024   2.399       .  S
O3020      C3025   1.285       .  A
O3021      H3038   0.991       .  S
O3021      H3053   0.990       .  S
O3022      H3039   0.990       .  S
O3023      H3043   0.990       .  S
O3023      H3052   0.990       .  S
O3024      C3025   1.277       .  A
O3026      H3045   0.992       .  S
O3026      H3049   0.989       .  S
O3027      H3041   0.990       .  S
O3027      H3048   0.990       .  S
O3029      C3032   1.280       .  A
O3030      H3040   0.990       .  S
C3032      C3167   1.460       .  S
C3055      N3056   1.357       .  A
C3055      N3060   1.355       .  A
N3056      C3057   1.356       .  A
C3057      C3131   1.460       .  S
C3057      N3058   1.357       .  A
N3058      C3059   1.358       .  A
C3059      C3063   1.479       .  S
C3059      N3060   1.359       .  A
C3061      C3062   1.399       .  A
C3061      C3066   1.402       .  A
C3062      C3063   1.402       .  A
C3062      H3067   1.084       .  S
C3063      C3064   1.405       .  A
C3064      C3065   1.402       .  A
C3064      H3068   1.084       .  S
C3065      C3066   1.404       .  A
C3065      C3072   1.473       .  S
C3066      H3069   1.084       .  S
C3070      C3071   1.405       .  A
C3070      C3116   1.468       .  S
C3071      C3072   1.398       .  A
C3071      H3076   1.085       .  S
C3072      C3073   1.396       .  A
C3073      C3074   1.402       .  A
C3073      H3077   1.085       .  S
C3075      H3078   1.083   1_545  S
C3079      C3084   1.405       .  A
C3079      C3111   1.465       .  S
C3080      H3085   1.084       .  S
C3081      C3082   1.400       .  A
C3082      C3083   1.395       .  A
C3082      H3086   1.085       .  S
C3083      C3084   1.397       .  A
C3083      C3158   1.469       .  S
C3084      H3087   1.084       .  S
Zr3088     O3089   2.443       .  S
Zr3088     O3090   2.458       .  S
Zr3088     O3091   2.439       .  S
Zr3088     O3094   2.441       .  S
Zr3088     O3096   2.379   1_556  S
Zr3088     O3098   2.418       .  S
Zr3088     O3099   2.402       .  S
O3089      H3145   0.991       .  S
O3089      H3153   0.990       .  S
O3092     Zr3102   2.426       .  S
O3093     Zr3101   2.424       .  S
O3093      C3112   1.282       .  A
O3094      C3111   1.285       .  A
O3095     Zr3103   2.392       .  S
O3095      C3110   1.277       .  A
O3097     Zr3102   2.394       .  S
O3097     Zr3103   2.379       .  S
O3097      H3132   0.966       .  S
O3098      H3135   0.965       .  S
Zr3100     O3125   2.442       .  S
Zr3100     O3119   2.457       .  S
Zr3100     O3127   2.449       .  S
Zr3100     O3109   2.387       .  S
Zr3101     O3113   2.433       .  S
Zr3102     O3104   2.435       .  S
Zr3102     O3126   2.436       .  S
Zr3102     O3106   2.395       .  S
Zr3103     O3129   2.434       .  S
Zr3103     O3106   2.388       .  S
O3104      H3141   0.990       .  S
O3105      H3136   0.990       .  S
O3105      H3150   0.990       .  S
O3107      H3133   0.964   1_655  S
O3108     Zr3118   2.381       .  S
O3109      H3134   0.966       .  S
C3112      C3163   1.456       .  S
O3113      H3149   0.990   1_565  S
O3115      C3116   1.288       .  A
Zr3118     O3121   2.437       .  S
Zr3118     O3122   2.440       .  S
Zr3118     O3123   2.399       .  S
O3120      H3137   0.991       .  S
O3120      H3152   0.990       .  S
O3121      H3138   0.990       .  S
O3122      H3142   0.990       .  S
O3122      H3151   0.990       .  S
O3123      C3124   1.278       .  A
O3125      H3144   0.992       .  S
O3126      H3140   0.990       .  S
O3126      H3147   0.990       .  S
O3127      C3131   1.285       .  A
O3128      C3131   1.280       .  A
O3129      H3139   0.990       .  S
O3130      H3143   0.990       .  S
C3154      C3155   1.402       .  A
C3154      C3159   1.404       .  A
C3155      C3156   1.405       .  A
C3155      H3160   1.084       .  S
C3156      C3157   1.402       .  A
C3156      C3165   1.479       .  S
C3157      C3158   1.398       .  A
C3157      H3161   1.084       .  S
C3158      C3159   1.403       .  A
C3159      H3162   1.084       .  S
C3163      N3164   1.355       .  A
N3164      C3165   1.359       .  A
C3165      N3166   1.358       .  A
N3166      C3167   1.356       .  A
