geometry optimzed in LAMMPS
_audit_creation_date              2020-11-30 
_audit_creation_method            'lammps2cif' 
_symmetry_space_group_name_H-M    'P1' 
_symmetry_Int_Tables_number       1 
_symmetry_cell_setting            triclinic 
loop_ 
_symmetry_equiv_pos_as_xyz 
  x,y,z 
_cell_length_a                    30.50402405 
_cell_length_b                    36.900007599672705 
_cell_length_c                    23.14943699926818 
_cell_angle_alpha                 90.0001881927267 
_cell_angle_beta                  90.00161033519004 
_cell_angle_gamma                 90.00297292056214 
loop_ 
_atom_site_label 
_atom_site_type_symbol 
_atom_site_fract_x 
_atom_site_fract_y 
_atom_site_fract_z 
_atom_site_charge 
C1          C  0.09227766  0.20340484  0.00000045     0.03400
C2          C  0.41065326  0.30787047  0.50000914     0.03400
Zn3        Zn  0.23720520  0.28417433  0.31897160     1.49700
Zn4        Zn  0.21669244  0.21078743  0.25000397     1.49400
Zn5        Zn  0.23718568  0.28419001  0.18111336     1.49100
Zn6        Zn  0.31434441  0.24392454  0.25002808     1.49500
O7          O  0.25141314  0.25568361  0.25002998    -1.78300
O8          O  0.19247851  0.25861188  0.36818263    -0.68900
O9          O  0.17794357  0.20757151  0.17934468    -0.68700
O10         O  0.21266175  0.33319192  0.20200401    -0.68200
O11         O  0.17794897  0.20755946  0.32065428    -0.68900
O12         O  0.21265659  0.33317858  0.29812676    -0.68500
O13         O  0.19243491  0.25865466  0.13188713    -0.69100
O14         O  0.34449006  0.26425590  0.17936877    -0.68500
O15         O  0.25622375  0.16699252  0.25000199    -0.69200
O16         O  0.29074246  0.29216281  0.13188415    -0.68600
O17         O  0.32384599  0.18975396  0.25003893    -0.69100
O18         O  0.34451573  0.26427219  0.32066279    -0.69000
O19         O  0.29077333  0.29215585  0.36818571    -0.68800
C20         C  0.17220502  0.22865514  0.36345041     0.83000
C21         C  0.17217731  0.22868808  0.13657957     0.84100
C22         C  0.20494642  0.34859014  0.25006902     0.82500
C23         C  0.33063892  0.28263691  0.13660952     0.82800
C24         C  0.29763526  0.16293993  0.25002171     0.84000
C25         C  0.33067334  0.28264677  0.36343409     0.83000
C26         C  0.34164030  0.05785612  0.24999554     0.03400
C27         C  0.15996382  0.45336216  0.24999718     0.03400
Zn28       Zn  0.03551665  0.46077479  0.00000427     1.49700
Zn29       Zn  0.43790516  0.49397841  0.00000057     1.49400
Zn30       Zn  0.01510716  0.03419132  0.06893280     1.49100
Zn31       Zn  0.01506822  0.03420662  0.43106520     1.49500
O32         O  0.00085187  0.00570075  0.00000271    -1.78300
O33         O  0.49592528  0.41701002  0.00000802    -0.68900
O34         O  0.40778166  0.01434246  0.07064364    -0.68700
O35         O  0.05985269  0.00862161  0.11811735    -0.68200
O36         O  0.42832613  0.43980946  0.00000159    -0.68900
O37         O  0.07426022  0.45752343  0.07066255    -0.68500
O38         O  0.46156149  0.04217190  0.11818680    -0.69100
O39         O  0.03959233  0.08321080  0.45193996    -0.68500
O40         O  0.40776138  0.01426866  0.42935729    -0.69200
O41         O  0.03963874  0.08320178  0.04806413    -0.68600
O42         O  0.46149742  0.04217444  0.38184749    -0.69100
O43         O  0.05981128  0.00866534  0.38183757    -0.69000
O44         O  0.07433006  0.45760352  0.42934572    -0.68800
C45         C  0.45451113  0.41297938  0.00000608     0.83000
C46         C  0.42165009  0.03268868  0.11343119     0.83500
C47         C  0.08006734  0.47863798  0.11342156     0.82500
C48         C  0.04734588  0.09860954  0.00000202     0.82800
C49         C  0.42160067  0.03264914  0.38659067     0.84000
C50         C  0.08007920  0.47870441  0.38655586     0.83000
C51         C  0.13347071  0.46087903  0.30146118    -0.07400
C52         C  0.10991840  0.46835745  0.34159282    -0.09000
C53         C  0.10990923  0.46828096  0.15837675    -0.07400
C54         C  0.13346504  0.46082380  0.19851630    -0.09000
C55         C  0.30239165  0.03496841  0.24994934    -0.12600
C56         C  0.26968517  0.01662550  0.24992926     0.11400
C57         C  0.23132907  0.49528817  0.24994305     0.13300
C58         C  0.19880844  0.47672096  0.24996196    -0.13500
C59         C  0.39154281  0.04249357  0.34158618    -0.07400
C60         C  0.36799022  0.05001523  0.30147080    -0.09000
C61         C  0.36803413  0.05004514  0.19854821    -0.07400
C62         C  0.39160402  0.04253844  0.15844644    -0.09000
C63         C  0.18741938  0.38464760  0.25007468    -0.07400
C64         C  0.17401005  0.41539366  0.25004887    -0.09000
C65         C  0.32827263  0.09601537  0.25001332    -0.07400
C66         C  0.31519963  0.12687234  0.25002127    -0.09000
C67         C  0.38428638  0.30003318  0.44854508    -0.07400
C68         C  0.36073185  0.29250391  0.40843419    -0.09000
C69         C  0.38422623  0.30001444  0.05147233    -0.07400
C70         C  0.36068315  0.29248453  0.09159101    -0.09000
C71         C  0.42388671  0.34604779  0.00001023    -0.07400
C72         C  0.43692424  0.37691733  0.00000879    -0.09000
C73         C  0.05347315  0.22675063  0.49999820    -0.12600
C74         C  0.02096235  0.24532454  0.49999937     0.11400
C75         C  0.48261606  0.26666139  0.50000327     0.13300
C76         C  0.44990790  0.28499730  0.50000706    -0.13500
C77         C  0.11880016  0.21085529  0.44853371    -0.07400
C78         C  0.14236086  0.21831032  0.40840245    -0.09000
C79         C  0.11877480  0.21089480  0.05147418    -0.07400
C80         C  0.14233135  0.21835319  0.09161301    -0.09000
C81         C  0.06484790  0.13467851  0.00000238    -0.07400
C82         C  0.07823437  0.16543307  0.00000173    -0.09000
C83         C  0.09230005  0.20337928  0.50000056     0.03400
C84         C  0.41058251  0.30787162  0.00000923     0.03400
Zn85       Zn  0.23718411  0.28418873  0.81889688     1.49700
Zn86       Zn  0.21669265  0.21078734  0.75000298     1.49400
Zn87       Zn  0.23720688  0.28417544  0.68103866     1.49100
Zn88       Zn  0.31434458  0.24392452  0.74998601     1.49500
O89         O  0.25141329  0.25568356  0.74998034    -1.78300
O90         O  0.19243588  0.25865157  0.86812132    -0.68900
O91         O  0.17794668  0.20756246  0.67935280    -0.68700
O92         O  0.21266040  0.33318023  0.70188383    -0.68200
O93         O  0.17794618  0.20756813  0.82066233    -0.68900
O94         O  0.21265798  0.33319014  0.79800658    -0.68500
O95         O  0.19247764  0.25861461  0.63182598    -0.69100
O96         O  0.34451690  0.26427159  0.67935348    -0.68500
O97         O  0.25622397  0.16699249  0.74999758    -0.69200
O98         O  0.29077504  0.29215518  0.63182615    -0.68600
O99         O  0.32384627  0.18975385  0.74997315    -0.69100
O100        O  0.34448905  0.26425651  0.82064742    -0.69000
O101        O  0.29074092  0.29216344  0.86812781    -0.68800
C102        C  0.17217939  0.22868419  0.86342783     0.83000
C103        C  0.17220304  0.22865854  0.63655709     0.84100
C104        C  0.20494640  0.34859002  0.74994128     0.82500
C105        C  0.33067510  0.28264562  0.63658060     0.82800
C106        C  0.29763591  0.16294012  0.74998198     0.84000
C107        C  0.33063727  0.28263823  0.86340554     0.83000
C108        C  0.34164044  0.05785604  0.75000222     0.03400
C109        C  0.15996385  0.45336222  0.75001659     0.03400
Zn110      Zn  0.03558646  0.46082205  0.50000429     1.49700
Zn111      Zn  0.43793180  0.49393906  0.50000049     1.49400
Zn112      Zn  0.01506684  0.03420835  0.56894022     1.49100
Zn113      Zn  0.01510861  0.03418973  0.93107280     1.49500
O114        O  0.00085968  0.00570971  0.50000266    -1.78300
O115        O  0.49606199  0.41702003  0.50000791    -0.68900
O116        O  0.40776054  0.01426832  0.57064167    -0.68700
O117        O  0.05981250  0.00866902  0.61816982    -0.68200
O118        O  0.42843696  0.43976958  0.50000146    -0.68900
O119        O  0.07433243  0.45760701  0.57066286    -0.68500
O120        O  0.46149583  0.04217444  0.61815628    -0.69100
O121        O  0.03964231  0.08319983  0.95194120    -0.68500
O122        O  0.40778259  0.01434275  0.92935570    -0.69200
O123        O  0.03958870  0.08321308  0.54806492    -0.68600
O124        O  0.46156309  0.04217184  0.88181707    -0.69100
O125        O  0.05985165  0.00861806  0.88189001    -0.69000
O126        O  0.07425780  0.45751992  0.92934601    -0.68800
C127        C  0.45465004  0.41296026  0.50000581     0.83000
C128        C  0.42159956  0.03264842  0.61341027     0.83500
C129        C  0.08008193  0.47870823  0.61345286     0.82500
C130        C  0.04729884  0.09861709  0.50000243     0.82800
C131        C  0.42165172  0.03268941  0.88656941     0.84000
C132        C  0.08006519  0.47863411  0.88658664     0.83000
C133        C  0.13346394  0.46082150  0.80149562    -0.07400
C134        C  0.10990691  0.46827659  0.84163361    -0.09000
C135        C  0.10992051  0.46836202  0.65841689    -0.07400
C136        C  0.13347231  0.46088136  0.69855135    -0.09000
C137        C  0.30239190  0.03496857  0.75005219    -0.12600
C138        C  0.26968516  0.01662538  0.75007993     0.11400
C139        C  0.23132939  0.49528831  0.75007430     0.13300
C140        C  0.19880844  0.47672085  0.75005760    -0.13500
C141        C  0.39160608  0.04254001  0.84155327    -0.07400
C142        C  0.36803608  0.05004681  0.80144965    -0.09000
C143        C  0.36798847  0.05001337  0.69852703    -0.07400
C144        C  0.39154088  0.04249177  0.65841331    -0.09000
C145        C  0.18741921  0.38464755  0.74993568    -0.07400
C146        C  0.17401020  0.41539356  0.74996217    -0.09000
C147        C  0.32827287  0.09601547  0.74998279    -0.07400
C148        C  0.31520005  0.12687229  0.74997739    -0.09000
C149        C  0.38422431  0.30001635  0.94854590    -0.07400
C150        C  0.36068118  0.29248653  0.90842524    -0.09000
C151        C  0.38428840  0.30003154  0.55147273    -0.07400
C152        C  0.36073385  0.29250194  0.59158206    -0.09000
C153        C  0.42401176  0.34603306  0.50001012    -0.07400
C154        C  0.43708779  0.37689071  0.50000866    -0.09000
C155        C  0.05343558  0.22676495  0.99999797    -0.12600
C156        C  0.02092353  0.24534120  0.99999928     0.11400
C157        C  0.48257604  0.26669058  0.00000311     0.13300
C158        C  0.44986381  0.28502423  0.00000709    -0.13500
C159        C  0.11877607  0.21089237  0.94852937    -0.07400
C160        C  0.14233401  0.21834920  0.90839204    -0.09000
C161        C  0.11879880  0.21085746  0.55147001    -0.07400
C162        C  0.14235824  0.21831392  0.59160297    -0.09000
C163        C  0.06481993  0.13467463  0.50000214    -0.07400
C164        C  0.07823340  0.16541847  0.50000165    -0.09000
C165        C  0.09226560  0.70340839  0.00000051     0.03400
C166        C  0.41064193  0.80786756  0.50000914     0.03400
Zn167      Zn  0.23719586  0.78417041  0.31896915     1.49700
Zn168      Zn  0.21668610  0.71078303  0.25000143     1.49400
Zn169      Zn  0.23717611  0.78418756  0.18111183     1.49100
Zn170      Zn  0.31433677  0.74392365  0.25002352     1.49500
O171        O  0.25140487  0.75568038  0.25002721    -1.78300
O172        O  0.19246836  0.75860809  0.36817800    -0.68900
O173        O  0.17793644  0.70756724  0.17934240    -0.68700
O174        O  0.21265292  0.83318944  0.20200391    -0.68200
O175        O  0.17794304  0.70755372  0.32065281    -0.68900
O176        O  0.21264975  0.83317585  0.29812650    -0.68500
O177        O  0.19242477  0.75865214  0.13188765    -0.69100
O178        O  0.34448154  0.76425819  0.17936557    -0.68500
O179        O  0.25622002  0.66698937  0.24999911    -0.69200
O180        O  0.29073191  0.79216243  0.13188113    -0.68600
O181        O  0.32384103  0.68975334  0.25003234    -0.69100
O182        O  0.34450709  0.76427052  0.32065976    -0.69000
O183        O  0.29076290  0.79215012  0.36818533    -0.68800
C184        C  0.17219705  0.72865021  0.36344729     0.83000
C185        C  0.17216820  0.72868519  0.13657872     0.84100
C186        C  0.20493936  0.84858797  0.25006986     0.82500
C187        C  0.33062953  0.78263900  0.13660655     0.82800
C188        C  0.29763159  0.66293849  0.25001728     0.84000
C189        C  0.33066367  0.78264277  0.36343301     0.83000
C190        C  0.34164046  0.55785556  0.24999950     0.03400
C191        C  0.15996316  0.95336207  0.24999360     0.03400
Zn192      Zn  0.03550794  0.96077329  0.00000423     1.49700
Zn193      Zn  0.43791087  0.99398269  0.00000058     1.49400
Zn194      Zn  0.01510733  0.53419110  0.06893260     1.49100
Zn195      Zn  0.01506639  0.53420420  0.43106420     1.49500
O196        O  0.00085542  0.50569949  0.00000264    -1.78300
O197        O  0.49592750  0.91701232  0.00000804    -0.68900
O198        O  0.40777555  0.51433763  0.07064412    -0.68700
O199        O  0.05985478  0.50862428  0.11811861    -0.68200
O200        O  0.42832949  0.93981387  0.00000161    -0.68900
O201        O  0.07425198  0.95751914  0.07066233    -0.68500
O202        O  0.46155585  0.54216646  0.11818758    -0.69100
O203        O  0.03959103  0.58320720  0.45193973    -0.68500
O204        O  0.40776644  0.51427044  0.42935798    -0.69200
O205        O  0.03963219  0.58320362  0.04806408    -0.68600
O206        O  0.46150162  0.54217651  0.38184730    -0.69100
O207        O  0.05980942  0.50866223  0.38183749    -0.69000
O208        O  0.07433373  0.95760645  0.42934476    -0.68800
C209        C  0.45451259  0.91298329  0.00000609     0.83000
C210        C  0.42164434  0.53268334  0.11343263     0.83500
C211        C  0.08006237  0.97863397  0.11342085     0.82500
C212        C  0.04733688  0.59861220  0.00000210     0.82800
C213        C  0.42160511  0.53265102  0.38659160     0.84000
C214        C  0.08008207  0.97870716  0.38655546     0.83000
C215        C  0.13347199  0.96088157  0.30145867    -0.07400
C216        C  0.10992062  0.96836118  0.34159104    -0.09000
C217        C  0.10990481  0.96827650  0.15837433    -0.07400
C218        C  0.13346252  0.96082118  0.19851374    -0.09000
C219        C  0.30239148  0.53496807  0.24995928    -0.12600
C220        C  0.26968547  0.51662566  0.24994128     0.11400
C221        C  0.23132926  0.99528796  0.24993120     0.13300
C222        C  0.19880819  0.97672043  0.24995290    -0.13500
C223        C  0.39154631  0.54249569  0.34158768    -0.07400
C224        C  0.36799257  0.55001671  0.30147396    -0.09000
C225        C  0.36803115  0.55004191  0.19855138    -0.07400
C226        C  0.39159936  0.54253310  0.15844781    -0.09000
C227        C  0.18741514  0.88464632  0.25007576    -0.07400
C228        C  0.17400825  0.91539327  0.25004894    -0.09000
C229        C  0.32827246  0.59601494  0.25001355    -0.07400
C230        C  0.31519835  0.62687122  0.25001844    -0.09000
C231        C  0.38427539  0.80002989  0.44854514    -0.07400
C232        C  0.36072117  0.79249981  0.40843383    -0.09000
C233        C  0.38421751  0.80002099  0.05147178    -0.07400
C234        C  0.36067334  0.79248939  0.09158951    -0.09000
C235        C  0.42388234  0.84605307  0.00001029    -0.07400
C236        C  0.43692358  0.87692121  0.00000886    -0.09000
C237        C  0.05346677  0.72674549  0.49999830    -0.12600
C238        C  0.02095511  0.74531866  0.49999941     0.11400
C239        C  0.48260550  0.76665937  0.50000349     0.13300
C240        C  0.44989660  0.78499477  0.50000709    -0.13500
C241        C  0.11879425  0.71085151  0.44853328    -0.07400
C242        C  0.14235359  0.71830552  0.40840030    -0.09000
C243        C  0.11876359  0.71089555  0.05147410    -0.07400
C244        C  0.14232129  0.71835139  0.09161347    -0.09000
C245        C  0.06483340  0.63468276  0.00000245    -0.07400
C246        C  0.07821835  0.66543776  0.00000185    -0.09000
C247        C  0.09229464  0.70337540  0.50000065     0.03400
C248        C  0.41057446  0.80787718  0.00000914     0.03400
Zn249      Zn  0.23717448  0.78418634  0.81889847     1.49700
Zn250      Zn  0.21668641  0.71078286  0.75000567     1.49400
Zn251      Zn  0.23719745  0.78417149  0.68104119     1.49100
Zn252      Zn  0.31433693  0.74392371  0.74999051     1.49500
O253        O  0.25140492  0.75568031  0.74998318    -1.78300
O254        O  0.19242557  0.75864922  0.86812069    -0.68900
O255        O  0.17794079  0.70755666  0.67935440    -0.68700
O256        O  0.21265321  0.83317755  0.70188410    -0.68200
O257        O  0.17793937  0.70756376  0.82066486    -0.68900
O258        O  0.21264915  0.83318778  0.79800670    -0.68500
O259        O  0.19246743  0.75861078  0.63183057    -0.69100
O260        O  0.34450819  0.76427003  0.67935638    -0.68500
O261        O  0.25622030  0.66698932  0.75000053    -0.69200
O262        O  0.29076438  0.79214946  0.63182667    -0.68600
O263        O  0.32384142  0.68975337  0.74997967    -0.69100
O264        O  0.34448058  0.76425886  0.82065062    -0.69000
O265        O  0.29073024  0.79216296  0.86813076    -0.68800
C266        C  0.17217026  0.72868116  0.86342867     0.83000
C267        C  0.17219508  0.72865362  0.63656027     0.84100
C268        C  0.20493938  0.84858777  0.74994055     0.82500
C269        C  0.33066543  0.78264148  0.63658205     0.82800
C270        C  0.29763246  0.66293813  0.74998652     0.84000
C271        C  0.33062806  0.78264027  0.86340830     0.83000
C272        C  0.34164048  0.55785565  0.74999812     0.03400
C273        C  0.15996318  0.95336219  0.75002013     0.03400
Zn274      Zn  0.03559007  0.96082272  0.50000429     1.49700
Zn275      Zn  0.43792570  0.99393701  0.50000046     1.49400
Zn276      Zn  0.01506507  0.53420581  0.56894101     1.49100
Zn277      Zn  0.01510883  0.53418953  0.93107292     1.49500
O278        O  0.00085663  0.50570893  0.50000236    -1.78300
O279        O  0.49605330  0.91701655  0.50000790    -0.68900
O280        O  0.40776570  0.51427003  0.57064099    -0.68700
O281        O  0.05981053  0.50866593  0.61816967    -0.68200
O282        O  0.42842894  0.93976732  0.50000147    -0.68900
O283        O  0.07433603  0.95760993  0.57066381    -0.68500
O284        O  0.46150019  0.54217647  0.61815643    -0.69100
O285        O  0.03963579  0.58320162  0.95194118    -0.68500
O286        O  0.40777651  0.51433798  0.92935502    -0.69200
O287        O  0.03958754  0.58320927  0.54806502    -0.68600
O288        O  0.46155747  0.54216634  0.88181627    -0.69100
O289        O  0.05985386  0.50862078  0.88188879    -0.69000
O290        O  0.07424946  0.95751562  0.92934594    -0.68800
C291        C  0.45464172  0.91295737  0.50000581     0.83000
C292        C  0.42160374  0.53265024  0.61340925     0.83500
C293        C  0.08008459  0.97871151  0.61345341     0.82500
C294        C  0.04729783  0.59861315  0.50000237     0.82800
C295        C  0.42164615  0.53268407  0.88656852     0.84000
C296        C  0.08005998  0.97863015  0.88658766     0.83000
C297        C  0.13346106  0.96081883  0.80149843    -0.07400
C298        C  0.10990265  0.96827217  0.84163565    -0.09000
C299        C  0.10992295  0.96836574  0.65841881    -0.07400
C300        C  0.13347346  0.96088406  0.69855372    -0.09000
C301        C  0.30239182  0.53496831  0.75004246    -0.12600
C302        C  0.26968531  0.51662554  0.75006773     0.11400
C303        C  0.23132957  0.99528808  0.75008608     0.13300
C304        C  0.19880817  0.97672036  0.75006661    -0.13500
C305        C  0.39160120  0.54253492  0.84155147    -0.07400
C306        C  0.36803339  0.55004348  0.80144701    -0.09000
C307        C  0.36799084  0.55001484  0.69852409    -0.07400
C308        C  0.39154450  0.54249390  0.65841157    -0.09000
C309        C  0.18741501  0.88464651  0.74993471    -0.07400
C310        C  0.17400831  0.91539305  0.74996202    -0.09000
C311        C  0.32827303  0.59601458  0.74998253    -0.07400
C312        C  0.31519860  0.62687169  0.74998026    -0.09000
C313        C  0.38421568  0.80002282  0.94854630    -0.07400
C314        C  0.36067123  0.79249147  0.90842652    -0.09000
C315        C  0.38427714  0.80002820  0.55147283    -0.07400
C316        C  0.36072314  0.79249805  0.59158250    -0.09000
C317        C  0.42400056  0.84603059  0.50001012    -0.07400
C318        C  0.43707769  0.87688779  0.50000862    -0.09000
C319        C  0.05342656  0.72677195  0.99999793    -0.12600
C320        C  0.02091618  0.74535065  0.99999906     0.11400
C321        C  0.48256538  0.76669262  0.00000310     0.13300
C322        C  0.44985432  0.78502766  0.00000708    -0.13500
C323        C  0.11876478  0.71089308  0.94852960    -0.07400
C324        C  0.14232405  0.71834732  0.90839170    -0.09000
C325        C  0.11879292  0.71085372  0.55147058    -0.07400
C326        C  0.14235106  0.71830909  0.59160521    -0.09000
C327        C  0.06481804  0.63467031  0.50000221    -0.07400
C328        C  0.07822978  0.66541465  0.50000171    -0.09000
C329        C  0.59227780  0.20340760  0.00000073     0.03400
C330        C  0.91065033  0.30787111  0.50000916     0.03400
Zn331      Zn  0.73720543  0.28417350  0.31896975     1.49700
Zn332      Zn  0.71669589  0.21078715  0.25000154     1.49400
Zn333      Zn  0.73718815  0.28419088  0.18111191     1.49100
Zn334      Zn  0.81434718  0.24392581  0.25002556     1.49500
O335        O  0.75141553  0.25568370  0.25002783    -1.78300
O336        O  0.69247957  0.25860981  0.36818084    -0.68900
O337        O  0.67794672  0.20757181  0.17934254    -0.68700
O338        O  0.71266341  0.33319217  0.20200349    -0.68200
O339        O  0.67795288  0.20755692  0.32065265    -0.68900
O340        O  0.71265603  0.33317772  0.29812616    -0.68500
O341        O  0.69243741  0.25865552  0.13188584    -0.69100
O342        O  0.84449265  0.26425838  0.17936712    -0.68500
O343        O  0.75622816  0.16699323  0.24999864    -0.69200
O344        O  0.79074473  0.29216516  0.13188299    -0.68600
O345        O  0.82385034  0.18975503  0.25003692    -0.69100
O346        O  0.84451692  0.26427391  0.32066072    -0.69000
O347        O  0.79077283  0.29215540  0.36818379    -0.68800
C348        C  0.67220766  0.22865224  0.36344897     0.83000
C349        C  0.67217964  0.22868879  0.13657780     0.84100
C350        C  0.70494676  0.34858983  0.25006907     0.82500
C351        C  0.83064151  0.28264005  0.13660785     0.82800
C352        C  0.79764009  0.16294065  0.25001935     0.84000
C353        C  0.83067320  0.28264744  0.36343206     0.83000
C354        C  0.84163989  0.05785582  0.24999971     0.03400
C355        C  0.65996245  0.45336132  0.24999377     0.03400
Zn356      Zn  0.53550808  0.46077166  0.00000427     1.49700
Zn357      Zn  0.93791163  0.49397720  0.00000057     1.49400
Zn358      Zn  0.51511045  0.03419239  0.06893243     1.49100
Zn359      Zn  0.51506562  0.03420456  0.43106553     1.49500
O360        O  0.50085591  0.00570111  0.00000264    -1.78300
O361        O  0.99593698  0.41701093  0.00000804    -0.68900
O362        O  0.90777792  0.01434291  0.07064418    -0.68700
O363        O  0.55985499  0.00862225  0.11811859    -0.68200
O364        O  0.92833674  0.43980802  0.00000161    -0.68900
O365        O  0.57425174  0.45751843  0.07066261    -0.68500
O366        O  0.96155887  0.04217010  0.11818877    -0.69100
O367        O  0.53958988  0.08320911  0.45193994    -0.68500
O368        O  0.90776547  0.01426670  0.42935802    -0.69200
O369        O  0.53964165  0.08320322  0.04806406    -0.68600
O370        O  0.96149875  0.04217672  0.38184941    -0.69100
O371        O  0.55980970  0.00866247  0.38184036    -0.69000
O372        O  0.57433284  0.45760482  0.42934513    -0.68800
C373        C  0.95452256  0.41297929  0.00000609     0.83000
C374        C  0.92164735  0.03268780  0.11343353     0.83500
C375        C  0.58006133  0.47863354  0.11342110     0.82500
C376        C  0.54734834  0.09861138  0.00000209     0.82800
C377        C  0.92160288  0.03264911  0.38659271     0.84000
C378        C  0.58008250  0.47870585  0.38655617     0.83000
C379        C  0.63347130  0.46087956  0.30145916    -0.07400
C380        C  0.60992056  0.46835886  0.34159206    -0.09000
C381        C  0.60990395  0.46827620  0.15837495    -0.07400
C382        C  0.63346154  0.46082057  0.19851412    -0.09000
C383        C  0.80239013  0.03496950  0.24995593    -0.12600
C384        C  0.76968312  0.01662647  0.24993696     0.11400
C385        C  0.73132748  0.49528791  0.24993383     0.13300
C386        C  0.69880667  0.47672050  0.24995404    -0.13500
C387        C  0.89154353  0.04249332  0.34158926    -0.07400
C388        C  0.86799042  0.05001488  0.30147493    -0.09000
C389        C  0.86803247  0.05004307  0.19855227    -0.07400
C390        C  0.89160196  0.04253638  0.15844932    -0.09000
C391        C  0.68741919  0.38464707  0.25007462    -0.07400
C392        C  0.67400946  0.41539306  0.25004783    -0.09000
C393        C  0.82827493  0.09601539  0.25001568    -0.07400
C394        C  0.81520381  0.12687345  0.25002101    -0.09000
C395        C  0.88428376  0.30003389  0.44854504    -0.07400
C396        C  0.86073060  0.29250479  0.40843333    -0.09000
C397        C  0.88422974  0.30001814  0.05147173    -0.07400
C398        C  0.86068562  0.29248834  0.09159074    -0.09000
C399        C  0.92389648  0.34604814  0.00001027    -0.07400
C400        C  0.93693693  0.37691632  0.00000885    -0.09000
C401        C  0.55347724  0.22674967  0.49999827    -0.12600
C402        C  0.52096630  0.24532465  0.49999934     0.11400
C403        C  0.98261179  0.26666153  0.50000354     0.13300
C404        C  0.94990470  0.28499764  0.50000721    -0.13500
C405        C  0.61880343  0.21085170  0.44853339    -0.07400
C406        C  0.64236407  0.21830649  0.40840153    -0.09000
C407        C  0.61877525  0.21089701  0.05147375    -0.07400
C408        C  0.64233312  0.21835463  0.09161260    -0.09000
C409        C  0.56484838  0.13468074  0.00000246    -0.07400
C410        C  0.57823405  0.16543600  0.00000190    -0.09000
C411        C  0.59230268  0.20337676  0.50000066     0.03400
C412        C  0.91058672  0.30787299  0.00000923     0.03400
Zn413      Zn  0.73718659  0.28418961  0.81889839     1.49700
Zn414      Zn  0.71669609  0.21078707  0.75000557     1.49400
Zn415      Zn  0.73720699  0.28417462  0.68104059     1.49100
Zn416      Zn  0.81434731  0.24392586  0.74998850     1.49500
O417        O  0.75141561  0.25568367  0.74998254    -1.78300
O418        O  0.69243828  0.25865252  0.86812259    -0.68900
O419        O  0.67795050  0.20755992  0.67935448    -0.68700
O420        O  0.71265971  0.33317941  0.70188443    -0.68200
O421        O  0.67794935  0.20756852  0.82066473    -0.68900
O422        O  0.71265984  0.33319044  0.79800712    -0.68500
O423        O  0.69247862  0.25861261  0.63182782    -0.69100
O424        O  0.84451798  0.26427354  0.67935559    -0.68500
O425        O  0.75622860  0.16699317  0.75000103    -0.69200
O426        O  0.79077429  0.29215472  0.63182814    -0.68600
O427        O  0.82385062  0.18975506  0.74997519    -0.69100
O428        O  0.84449172  0.26425913  0.82064912    -0.69000
O429        O  0.79074318  0.29216578  0.86812890    -0.68800
C430        C  0.67218200  0.22868513  0.86342919     0.83000
C431        C  0.67220547  0.22865565  0.63655857     0.84100
C432        C  0.70494673  0.34858993  0.74994133     0.82500
C433        C  0.83067461  0.28264642  0.63658285     0.82800
C434        C  0.79764000  0.16294091  0.74998418     0.84000
C435        C  0.83064015  0.28264115  0.86340654     0.83000
C436        C  0.84164010  0.05785569  0.74999817     0.03400
C437        C  0.65996266  0.45336132  0.75002015     0.03400
Zn438      Zn  0.53558950  0.46082292  0.50000424     1.49700
Zn439      Zn  0.93792778  0.49393881  0.50000043     1.49400
Zn440      Zn  0.51506419  0.03420626  0.56893976     1.49100
Zn441      Zn  0.51511196  0.03419077  0.93107309     1.49500
O442        O  0.50085489  0.00570799  0.50000256    -1.78300
O443        O  0.99605868  0.41701989  0.50000791    -0.68900
O444        O  0.90776456  0.01426635  0.57064117    -0.68700
O445        O  0.55981086  0.00866607  0.61816686    -0.68200
O446        O  0.92843350  0.43976956  0.50000148    -0.68900
O447        O  0.57433521  0.45760837  0.57066347    -0.68500
O448        O  0.96149722  0.04217666  0.61815453    -0.69100
O449        O  0.53964523  0.08320123  0.95194116    -0.68500
O450        O  0.90777897  0.01434309  0.92935492    -0.69200
O451        O  0.53958624  0.08321124  0.54806485    -0.68600
O452        O  0.96156039  0.04217020  0.88181515    -0.69100
O453        O  0.55985406  0.00861876  0.88188884    -0.69000
O454        O  0.57424939  0.45751499  0.92934581    -0.68800
C455        C  0.95464698  0.41296028  0.50000581     0.83000
C456        C  0.92160179  0.03264835  0.61340817     0.83500
C457        C  0.58008488  0.47870977  0.61345211     0.82500
C458        C  0.54729657  0.09861546  0.50000200     0.82800
C459        C  0.92164860  0.03268835  0.88656767     0.84000
C460        C  0.58005894  0.47862968  0.88658747     0.83000
C461        C  0.63346011  0.46081833  0.80149823    -0.07400
C462        C  0.60990183  0.46827193  0.84163504    -0.09000
C463        C  0.60992311  0.46836330  0.65841826    -0.07400
C464        C  0.63347279  0.46088199  0.69855292    -0.09000
C465        C  0.80239030  0.03496947  0.75004584    -0.12600
C466        C  0.76968322  0.01662654  0.75007203     0.11400
C467        C  0.73132771  0.49528806  0.75008341     0.13300
C468        C  0.69880662  0.47672047  0.75006542    -0.13500
C469        C  0.89160392  0.04253805  0.84155018    -0.07400
C470        C  0.86803456  0.05004484  0.80144572    -0.09000
C471        C  0.86798884  0.05001300  0.69852307    -0.07400
C472        C  0.89154173  0.04249161  0.65841061    -0.09000
C473        C  0.68741928  0.38464699  0.74993593    -0.07400
C474        C  0.67400944  0.41539318  0.74996323    -0.09000
C475        C  0.82827507  0.09601566  0.74998068    -0.07400
C476        C  0.81520436  0.12687310  0.74997759    -0.09000
C477        C  0.88422785  0.30001999  0.94854596    -0.07400
C478        C  0.86068379  0.29249054  0.90842561    -0.09000
C479        C  0.88428556  0.30003232  0.55147308    -0.07400
C480        C  0.86073247  0.29250310  0.59158283    -0.09000
C481        C  0.92400900  0.34603335  0.50001010    -0.07400
C482        C  0.93708479  0.37689091  0.50000862    -0.09000
C483        C  0.55343638  0.22676873  0.99999804    -0.12600
C484        C  0.52092460  0.24534560  0.99999929     0.11400
C485        C  0.98257547  0.26668677  0.00000309     0.13300
C486        C  0.94986502  0.28502210  0.00000704    -0.13500
C487        C  0.61877679  0.21089463  0.94852939    -0.07400
C488        C  0.64233542  0.21835060  0.90839314    -0.09000
C489        C  0.61880202  0.21085378  0.55147030    -0.07400
C490        C  0.64236153  0.21831015  0.59160402    -0.09000
C491        C  0.56481838  0.13467280  0.50000212    -0.07400
C492        C  0.57823352  0.16541638  0.50000170    -0.09000
C493        C  0.59226568  0.70340714  0.00000054     0.03400
C494        C  0.91064623  0.80786902  0.50000908     0.03400
Zn495      Zn  0.73719960  0.78417073  0.31896976     1.49700
Zn496      Zn  0.71668767  0.71078377  0.25000088     1.49400
Zn497      Zn  0.73717917  0.78418766  0.18111221     1.49100
Zn498      Zn  0.81433967  0.74392295  0.25002555     1.49500
O499        O  0.75140781  0.75568045  0.25002781    -1.78300
O500        O  0.69247337  0.75860809  0.36817972    -0.68900
O501        O  0.67793728  0.70756874  0.17934196    -0.68700
O502        O  0.71265630  0.83318968  0.20200450    -0.68200
O503        O  0.67794474  0.70755491  0.32065278    -0.68900
O504        O  0.71265159  0.83317543  0.29812712    -0.68500
O505        O  0.69242725  0.75865294  0.13188637    -0.69100
O506        O  0.84448459  0.76425620  0.17936676    -0.68500
O507        O  0.75622077  0.66698962  0.24999722    -0.69200
O508        O  0.79073555  0.79216178  0.13188296    -0.68600
O509        O  0.82384252  0.68975234  0.25003489    -0.69100
O510        O  0.84451071  0.76427091  0.32066104    -0.69000
O511        O  0.79076693  0.79215238  0.36818447    -0.68800
C512        C  0.67220019  0.72865066  0.36344842     0.83000
C513        C  0.67216948  0.72868657  0.13657750     0.84100
C514        C  0.70494176  0.84858774  0.25007051     0.82500
C515        C  0.83063267  0.78263738  0.13660810     0.82800
C516        C  0.79763296  0.66293795  0.25001691     0.84000
C517        C  0.83066777  0.78264471  0.36343297     0.83000
C518        C  0.84163961  0.55785447  0.24999523     0.03400
C519        C  0.65996272  0.95336118  0.24999824     0.03400
Zn520      Zn  0.53551230  0.96077365  0.00000427     1.49700
Zn521      Zn  0.93790668  0.99398341  0.00000061     1.49400
Zn522      Zn  0.51510433  0.53418929  0.06893228     1.49100
Zn523      Zn  0.51506991  0.53420609  0.43106474     1.49500
O524        O  0.50085003  0.50569814  0.00000272    -1.78300
O525        O  0.99592259  0.91701293  0.00000806    -0.68900
O526        O  0.90778020  0.51433518  0.07064375    -0.68700
O527        O  0.55985102  0.50862076  0.11811712    -0.68200
O528        O  0.92832477  0.93981492  0.00000165    -0.68900
O529        O  0.57425566  0.95752005  0.07066351    -0.68500
O530        O  0.96155810  0.54216736  0.11818672    -0.69100
O531        O  0.53959253  0.58321014  0.45193990    -0.68500
O532        O  0.90776248  0.51426994  0.42935725    -0.69200
O533        O  0.53963178  0.58320157  0.04806405    -0.68600
O534        O  0.96149814  0.54217536  0.38184660    -0.69100
O535        O  0.55981337  0.50866446  0.38183846    -0.69000
O536        O  0.57432631  0.95760156  0.42934524    -0.68800
C537        C  0.95450747  0.91298442  0.00000612     0.83000
C538        C  0.92164737  0.53268253  0.11343166     0.83500
C539        C  0.58006452  0.97863514  0.11342267     0.82500
C540        C  0.54733735  0.59861014  0.00000209     0.82800
C541        C  0.92160156  0.53265012  0.38659052     0.84000
C542        C  0.58007787  0.97870333  0.38655758     0.83000
C543        C  0.63347004  0.96087875  0.30146283    -0.07400
C544        C  0.60991755  0.96835697  0.34159458    -0.09000
C545        C  0.60990633  0.96827690  0.15837779    -0.07400
C546        C  0.63346257  0.96082110  0.19851745    -0.09000
C547        C  0.80239051  0.53496722  0.24995258    -0.12600
C548        C  0.76968390  0.51662506  0.24993288     0.11400
C549        C  0.73132785  0.99528877  0.24993952     0.13300
C550        C  0.69880678  0.97672034  0.24996022    -0.13500
C551        C  0.89154310  0.54249437  0.34158578    -0.07400
C552        C  0.86799030  0.55001509  0.30147096    -0.09000
C553        C  0.86803178  0.55004090  0.19854810    -0.07400
C554        C  0.89160107  0.54253201  0.15844559    -0.09000
C555        C  0.68741664  0.88464591  0.25007686    -0.07400
C556        C  0.67400879  0.91539251  0.25005126    -0.09000
C557        C  0.82827214  0.59601379  0.25000996    -0.07400
C558        C  0.81519820  0.62687054  0.25001640    -0.09000
C559        C  0.88427922  0.80003303  0.44854506    -0.07400
C560        C  0.86072505  0.79250286  0.40843308    -0.09000
C561        C  0.88421921  0.80001942  0.05147219    -0.07400
C562        C  0.86067641  0.79248734  0.09159048    -0.09000
C563        C  0.92387931  0.84605388  0.00001030    -0.07400
C564        C  0.93691861  0.87692235  0.00000886    -0.09000
C565        C  0.55346884  0.72675063  0.49999810    -0.12600
C566        C  0.52095662  0.74532420  0.49999932     0.11400
C567        C  0.98260482  0.76665574  0.50000349     0.13300
C568        C  0.94989850  0.78499301  0.50000709    -0.13500
C569        C  0.61879565  0.71085396  0.44853366    -0.07400
C570        C  0.64235646  0.71830696  0.40840072    -0.09000
C571        C  0.61876346  0.71089580  0.05147398    -0.07400
C572        C  0.64232203  0.71835277  0.09161283    -0.09000
C573        C  0.56483545  0.63468031  0.00000239    -0.07400
C574        C  0.57822065  0.66543571  0.00000187    -0.09000
C575        C  0.59229554  0.70337926  0.50000064     0.03400
C576        C  0.91057520  0.80787725  0.00000927     0.03400
Zn577      Zn  0.73717750  0.78418652  0.81889807     1.49700
Zn578      Zn  0.71668799  0.71078366  0.75000616     1.49400
Zn579      Zn  0.73720127  0.78417179  0.68104055     1.49100
Zn580      Zn  0.81433985  0.74392297  0.74998850     1.49500
O581        O  0.75140799  0.75568052  0.74998265    -1.78300
O582        O  0.69242802  0.75865015  0.86812191    -0.68900
O583        O  0.67794256  0.70755786  0.67935462    -0.68700
O584        O  0.71265524  0.83317706  0.70188355    -0.68200
O585        O  0.67794010  0.70756544  0.82066526    -0.68900
O586        O  0.71265253  0.83318814  0.79800606    -0.68500
O587        O  0.69247251  0.75861070  0.63182888    -0.69100
O588        O  0.84451181  0.76427035  0.67935515    -0.68500
O589        O  0.75622122  0.66698952  0.75000254    -0.69200
O590        O  0.79076861  0.79215179  0.63182745    -0.68600
O591        O  0.82384297  0.68975239  0.74997697    -0.69100
O592        O  0.84448351  0.76425683  0.82064956    -0.69000
O593        O  0.79073389  0.79216241  0.86812901    -0.68800
C594        C  0.67217162  0.72868223  0.86342928     0.83000
C595        C  0.67219818  0.72865440  0.63655884     0.84100
C596        C  0.70494182  0.84858755  0.74993994     0.82500
C597        C  0.83066922  0.78264369  0.63658189     0.82800
C598        C  0.79763310  0.66293762  0.74998671     0.84000
C599        C  0.83063098  0.78263858  0.86340650     0.83000
C600        C  0.84163976  0.55785446  0.75000240     0.03400
C601        C  0.65996286  0.95336128  0.75001570     0.03400
Zn602      Zn  0.53558223  0.96081945  0.50000425     1.49700
Zn603      Zn  0.93793159  0.99393615  0.50000056     1.49400
Zn604      Zn  0.51506856  0.53420781  0.56894057     1.49100
Zn605      Zn  0.51510582  0.53418764  0.93107324     1.49500
O606        O  0.50086045  0.50571017  0.50000258    -1.78300
O607        O  0.99606391  0.91701775  0.50000791    -0.68900
O608        O  0.90776170  0.51426961  0.57064144    -0.68700
O609        O  0.55981460  0.50866815  0.61816877    -0.68200
O610        O  0.92843860  0.93976653  0.50000165    -0.68900
O611        O  0.57432864  0.95760506  0.57066331    -0.68500
O612        O  0.96149674  0.54217523  0.61815701    -0.69100
O613        O  0.53963537  0.58319948  0.95194123    -0.68500
O614        O  0.90778116  0.51433546  0.92935550    -0.69200
O615        O  0.53958905  0.58321234  0.54806499    -0.68600
O616        O  0.96155968  0.54216738  0.88181720    -0.69100
O617        O  0.55985013  0.50861725  0.88189013    -0.69000
O618        O  0.57425336  0.95751657  0.92934492    -0.68800
C619        C  0.95465248  0.91295729  0.50000586     0.83000
C620        C  0.92160042  0.53264944  0.61341029     0.83500
C621        C  0.58008000  0.97870764  0.61345068     0.82500
C622        C  0.54729823  0.59861623  0.50000239     0.82800
C623        C  0.92164906  0.53268339  0.88656889     0.84000
C624        C  0.58006272  0.97863070  0.88658607     0.83000
C625        C  0.63346150  0.96081873  0.80149427    -0.07400
C626        C  0.60990412  0.96827260  0.84163250    -0.09000
C627        C  0.60992015  0.96836141  0.65841583    -0.07400
C628        C  0.63347121  0.96088124  0.69854904    -0.09000
C629        C  0.80239071  0.53496736  0.75004885    -0.12600
C630        C  0.76968387  0.51662493  0.75007629     0.11400
C631        C  0.73132803  0.99528880  0.75007769     0.13300
C632        C  0.69880695  0.97672023  0.75005913    -0.13500
C633        C  0.89160310  0.54253366  0.84155404    -0.07400
C634        C  0.86803375  0.55004257  0.80144969    -0.09000
C635        C  0.86798865  0.55001329  0.69852700    -0.07400
C636        C  0.89154148  0.54249256  0.65841350    -0.09000
C637        C  0.68741644  0.88464612  0.74993347    -0.07400
C638        C  0.67400902  0.91539235  0.74995965    -0.09000
C639        C  0.82827251  0.59601364  0.74998626    -0.07400
C640        C  0.81519857  0.62687073  0.74998211    -0.09000
C641        C  0.88421706  0.80002125  0.94854579    -0.07400
C642        C  0.86067447  0.79248945  0.90842601    -0.09000
C643        C  0.88428103  0.80003136  0.55147297    -0.07400
C644        C  0.86072716  0.79250111  0.59158304    -0.09000
C645        C  0.92400973  0.84603084  0.50001011    -0.07400
C646        C  0.93708940  0.87688747  0.50000859    -0.09000
C647        C  0.55342465  0.72676906  0.99999790    -0.12600
C648        C  0.52091336  0.74534655  0.99999921     0.11400
C649        C  0.98256901  0.76669667  0.00000307     0.13300
C650        C  0.94985667  0.78503060  0.00000688    -0.13500
C651        C  0.61876477  0.71089345  0.94852935    -0.07400
C652        C  0.64232464  0.71834865  0.90839243    -0.09000
C653        C  0.61879422  0.71085610  0.55147002    -0.07400
C654        C  0.64235395  0.71831063  0.59160498    -0.09000
C655        C  0.56481716  0.63467463  0.50000215    -0.07400
C656        C  0.57822862  0.66541836  0.50000168    -0.09000
loop_ 
_geom_bond_atom_site_label_1 
_geom_bond_atom_site_label_2 
_geom_bond_distance 
_geom_bond_site_symmetry_2 
_ccdc_geom_bond_type 
C1           C79   1.466       .  S
C1           C82   1.465       .  S
C1          C155   1.465   1_554  S
C1          C159   1.466   1_554  S
C2           C67   1.466       .  S
C2           C76   1.465       .  S
C2          C151   1.466       .  S
C2          C153   1.466       .  S
Zn3           O7   1.960       .  S
Zn3           O8   2.012       .  S
Zn3          O12   2.016       .  S
Zn3          O19   2.014       .  S
Zn4           O7   1.966       .  S
Zn4           O9   2.022       .  S
Zn4          O11   2.021       .  S
Zn4          O15   2.016       .  S
Zn5           O7   1.960       .  S
Zn5          O10   2.016       .  S
Zn5          O13   2.012       .  S
Zn5          O16   2.014       .  S
Zn6           O7   1.968       .  S
Zn6          O14   2.021       .  S
Zn6          O17   2.020       .  S
Zn6          O18   2.021       .  S
O8           C20   1.271       .  A
O9           C21   1.272       .  A
O10          C22   1.271       .  A
O11          C20   1.272       .  A
O12          C22   1.271       .  A
O13          C21   1.271       .  A
O14          C23   1.272       .  A
O15          C24   1.272       .  A
O16          C23   1.271       .  A
O17          C24   1.272       .  A
O18          C25   1.272       .  A
O19          C25   1.271       .  A
C20          C78   1.434       .  S
C21          C80   1.434       .  S
C22          C63   1.434       .  S
C23          C70   1.435       .  S
C24          C66   1.435       .  S
C25          C68   1.435       .  S
C26          C55   1.465       .  S
C26          C60   1.466       .  S
C26          C61   1.466       .  S
C26          C65   1.466       .  S
C27          C51   1.466       .  S
C27          C54   1.466       .  S
C27          C58   1.465       .  S
C27          C64   1.465       .  S
Zn28        O196   1.966       .  S
Zn28         O37   2.022       .  S
Zn28        O361   2.016   1_455  S
Zn28        O126   2.022   1_554  S
Zn29        O524   1.968       .  S
Zn29         O36   2.020       .  S
Zn29        O198   2.021       .  S
Zn29        O286   2.021   1_554  S
Zn30         O32   1.960       .  S
Zn30         O35   2.012       .  S
Zn30         O41   2.016       .  S
Zn30        O366   2.014   1_455  S
Zn31        O114   1.960       .  S
Zn31         O39   2.016       .  S
Zn31         O43   2.012       .  S
Zn31        O370   2.014   1_455  S
O32        Zn192   1.966   1_545  S
O32        Zn521   1.968   1_445  S
O32        Zn113   1.960   1_554  S
O33        Zn356   2.016       .  S
O33          C45   1.272       .  A
O34        Zn193   2.021   1_545  S
O34          C46   1.272       .  A
O35         C211   1.271   1_545  A
O36          C45   1.272       .  A
O37          C47   1.272       .  A
O38        Zn358   2.014       .  S
O38          C46   1.272       .  A
O39         C130   1.271       .  A
O40        Zn275   2.021   1_545  S
O40          C49   1.272       .  A
O41          C48   1.271       .  A
O42        Zn359   2.014       .  S
O42          C49   1.271       .  A
O43         C214   1.271   1_545  A
O44        Zn110   2.022       .  S
O44          C50   1.272       .  A
C45          C72   1.435       .  S
C46          C62   1.435       .  S
C47         O199   1.271       .  A
C47          C53   1.434       .  S
C48         O121   1.271   1_554  A
C48          C81   1.434       .  S
C49          C59   1.435       .  S
C50         O207   1.271       .  A
C50          C52   1.434       .  S
C51          C52   1.206       .  T
C53          C54   1.206       .  T
C55          C56   1.206       .  T
C56         C221   1.410   1_545  S
C57          C58   1.206       .  T
C57         C220   1.410       .  S
C59          C60   1.206       .  T
C61          C62   1.206       .  T
C63          C64   1.206       .  T
C65          C66   1.206       .  T
C67          C68   1.206       .  T
C69          C84   1.466       .  S
C69          C70   1.206       .  T
C71          C84   1.466       .  S
C71          C72   1.206       .  T
C73          C83   1.465       .  S
C73          C74   1.206       .  T
C74         C403   1.410   1_455  S
C75          C76   1.206       .  T
C75         C402   1.410       .  S
C77          C83   1.466       .  S
C77          C78   1.206       .  T
C79          C80   1.206       .  T
C81          C82   1.206       .  T
C83         C161   1.466       .  S
C83         C164   1.465       .  S
C84         C149   1.466   1_554  S
C84         C158   1.465       .  S
Zn85         O89   1.960       .  S
Zn85         O90   2.012       .  S
Zn85         O94   2.016       .  S
Zn85        O101   2.014       .  S
Zn86         O89   1.966       .  S
Zn86         O91   2.021       .  S
Zn86         O93   2.022       .  S
Zn86         O97   2.016       .  S
Zn87         O89   1.960       .  S
Zn87         O92   2.016       .  S
Zn87         O95   2.012       .  S
Zn87         O98   2.014       .  S
Zn88         O89   1.968       .  S
Zn88         O96   2.021       .  S
Zn88         O99   2.020       .  S
Zn88        O100   2.021       .  S
O90         C102   1.271       .  A
O91         C103   1.272       .  A
O92         C104   1.271       .  A
O93         C102   1.272       .  A
O94         C104   1.271       .  A
O95         C103   1.271       .  A
O96         C105   1.272       .  A
O97         C106   1.272       .  A
O98         C105   1.271       .  A
O99         C106   1.272       .  A
O100        C107   1.272       .  A
O101        C107   1.271       .  A
C102        C160   1.434       .  S
C103        C162   1.434       .  S
C104        C145   1.434       .  S
C105        C152   1.435       .  S
C106        C148   1.435       .  S
C107        C150   1.435       .  S
C108        C137   1.465       .  S
C108        C142   1.466       .  S
C108        C143   1.466       .  S
C108        C147   1.466       .  S
C109        C133   1.466       .  S
C109        C136   1.466       .  S
C109        C140   1.465       .  S
C109        C146   1.465       .  S
Zn110       O278   1.966       .  S
Zn110       O443   2.016   1_455  S
Zn110       O119   2.021       .  S
Zn111       O606   1.968       .  S
Zn111       O280   2.021       .  S
Zn111       O118   2.020       .  S
Zn111       O204   2.021       .  S
Zn112       O114   1.960       .  S
Zn112       O117   2.012       .  S
Zn112       O448   2.014   1_455  S
Zn112       O123   2.016       .  S
Zn113       O121   2.016       .  S
Zn113       O452   2.014   1_455  S
Zn113       O125   2.012       .  S
O114       Zn274   1.966   1_545  S
O114       Zn603   1.968   1_445  S
O115       Zn438   2.016       .  S
O115        C127   1.272       .  A
O116       Zn275   2.021   1_545  S
O116        C128   1.272       .  A
O117        C293   1.271   1_545  A
O118        C127   1.272       .  A
O119        C129   1.272       .  A
O120       Zn440   2.014       .  S
O120        C128   1.271       .  A
O122       Zn193   2.021   1_546  S
O122        C131   1.272       .  A
O123        C130   1.271       .  A
O124       Zn441   2.014       .  S
O124        C131   1.271       .  A
O125        C296   1.271   1_545  A
O126        C132   1.272       .  A
C127        C154   1.435       .  S
C128        C144   1.435       .  S
C129        O281   1.271       .  A
C129        C135   1.434       .  S
C130        C163   1.434       .  S
C131        C141   1.435       .  S
C132        O289   1.271       .  A
C132        C134   1.434       .  S
C133        C134   1.206       .  T
C135        C136   1.206       .  T
C137        C138   1.206       .  T
C138        C303   1.410   1_545  S
C139        C140   1.206       .  T
C139        C302   1.410       .  S
C141        C142   1.206       .  T
C143        C144   1.206       .  T
C145        C146   1.206       .  T
C147        C148   1.206       .  T
C149        C150   1.206       .  T
C151        C152   1.206       .  T
C153        C154   1.206       .  T
C155        C156   1.206       .  T
C156        C485   1.410   1_456  S
C157        C158   1.206       .  T
C157        C484   1.410   1_554  S
C159        C160   1.206       .  T
C161        C162   1.206       .  T
C163        C164   1.206       .  T
C165        C319   1.465   1_554  S
C165        C323   1.466   1_554  S
C165        C243   1.466       .  S
C165        C246   1.465       .  S
C166        C231   1.466       .  S
C166        C315   1.466       .  S
C166        C317   1.466       .  S
C166        C240   1.465       .  S
Zn167       O171   1.960       .  S
Zn167       O172   2.012       .  S
Zn167       O176   2.016       .  S
Zn167       O183   2.014       .  S
Zn168       O171   1.966       .  S
Zn168       O173   2.022       .  S
Zn168       O175   2.021       .  S
Zn168       O179   2.016       .  S
Zn169       O171   1.960       .  S
Zn169       O174   2.016       .  S
Zn169       O177   2.012       .  S
Zn169       O180   2.014       .  S
Zn170       O171   1.968       .  S
Zn170       O178   2.021       .  S
Zn170       O181   2.020       .  S
Zn170       O182   2.021       .  S
O172        C184   1.271       .  A
O173        C185   1.272       .  A
O174        C186   1.271       .  A
O175        C184   1.272       .  A
O176        C186   1.271       .  A
O177        C185   1.271       .  A
O178        C187   1.272       .  A
O179        C188   1.272       .  A
O180        C187   1.271       .  A
O181        C188   1.272       .  A
O182        C189   1.272       .  A
O183        C189   1.271       .  A
C184        C242   1.434       .  S
C185        C244   1.434       .  S
C186        C227   1.434       .  S
C187        C234   1.435       .  S
C188        C230   1.435       .  S
C189        C232   1.435       .  S
C190        C219   1.465       .  S
C190        C224   1.466       .  S
C190        C225   1.466       .  S
C190        C229   1.466       .  S
C191        C215   1.466       .  S
C191        C218   1.466       .  S
C191        C222   1.465       .  S
C191        C228   1.465       .  S
Zn192       O525   2.016   1_455  S
Zn192       O201   2.022       .  S
Zn192       O290   2.022   1_554  S
Zn193       O360   1.968   1_565  S
Zn193       O200   2.020       .  S
Zn194       O196   1.960       .  S
Zn194       O199   2.012       .  S
Zn194       O530   2.014   1_455  S
Zn194       O205   2.016       .  S
Zn195       O278   1.960       .  S
Zn195       O203   2.016       .  S
Zn195       O534   2.014   1_455  S
Zn195       O207   2.012       .  S
O196       Zn357   1.968   1_455  S
O196       Zn277   1.960   1_554  S
O197       Zn520   2.016       .  S
O197        C209   1.272       .  A
O198        C210   1.272       .  A
O200        C209   1.272       .  A
O201        C211   1.272       .  A
O202       Zn522   2.014       .  S
O202        C210   1.272       .  A
O203        C294   1.271       .  A
O204        C213   1.272       .  A
O205        C212   1.271       .  A
O206       Zn523   2.014       .  S
O206        C213   1.271       .  A
O208       Zn274   2.022       .  S
O208        C214   1.272       .  A
C209        C236   1.435       .  S
C210        C226   1.435       .  S
C211        C217   1.434       .  S
C212        O285   1.271   1_554  A
C212        C245   1.434       .  S
C213        C223   1.435       .  S
C214        C216   1.434       .  S
C215        C216   1.206       .  T
C217        C218   1.206       .  T
C219        C220   1.206       .  T
C221        C222   1.206       .  T
C223        C224   1.206       .  T
C225        C226   1.206       .  T
C227        C228   1.206       .  T
C229        C230   1.206       .  T
C231        C232   1.206       .  T
C233        C248   1.466       .  S
C233        C234   1.206       .  T
C235        C248   1.466       .  S
C235        C236   1.206       .  T
C237        C247   1.465       .  S
C237        C238   1.206       .  T
C238        C567   1.410   1_455  S
C239        C240   1.206       .  T
C239        C566   1.410       .  S
C241        C247   1.466       .  S
C241        C242   1.206       .  T
C243        C244   1.206       .  T
C245        C246   1.206       .  T
C247        C325   1.466       .  S
C247        C328   1.465       .  S
C248        C313   1.466   1_554  S
C248        C322   1.465       .  S
Zn249       O253   1.960       .  S
Zn249       O254   2.012       .  S
Zn249       O258   2.016       .  S
Zn249       O265   2.014       .  S
Zn250       O253   1.966       .  S
Zn250       O255   2.021       .  S
Zn250       O257   2.022       .  S
Zn250       O261   2.016       .  S
Zn251       O253   1.960       .  S
Zn251       O256   2.016       .  S
Zn251       O259   2.012       .  S
Zn251       O262   2.014       .  S
Zn252       O253   1.968       .  S
Zn252       O260   2.021       .  S
Zn252       O263   2.020       .  S
Zn252       O264   2.021       .  S
O254        C266   1.271       .  A
O255        C267   1.272       .  A
O256        C268   1.271       .  A
O257        C266   1.272       .  A
O258        C268   1.271       .  A
O259        C267   1.271       .  A
O260        C269   1.272       .  A
O261        C270   1.272       .  A
O262        C269   1.271       .  A
O263        C270   1.272       .  A
O264        C271   1.272       .  A
O265        C271   1.271       .  A
C266        C324   1.434       .  S
C267        C326   1.434       .  S
C268        C309   1.434       .  S
C269        C316   1.435       .  S
C270        C312   1.435       .  S
C271        C314   1.435       .  S
C272        C301   1.465       .  S
C272        C306   1.466       .  S
C272        C307   1.466       .  S
C272        C311   1.466       .  S
C273        C297   1.466       .  S
C273        C300   1.466       .  S
C273        C304   1.465       .  S
C273        C310   1.465       .  S
Zn274       O607   2.017   1_455  S
Zn274       O283   2.022       .  S
Zn275       O442   1.968   1_565  S
Zn275       O282   2.020       .  S
Zn276       O278   1.960       .  S
Zn276       O281   2.012       .  S
Zn276       O612   2.014   1_455  S
Zn276       O287   2.016       .  S
Zn277       O285   2.016       .  S
Zn277       O616   2.014   1_455  S
Zn277       O289   2.012       .  S
O278       Zn439   1.968   1_455  S
O279       Zn602   2.016       .  S
O279        C291   1.272       .  A
O280        C292   1.272       .  A
O282        C291   1.272       .  A
O283        C293   1.272       .  A
O284       Zn604   2.014       .  S
O284        C292   1.271       .  A
O286        C295   1.272       .  A
O287        C294   1.271       .  A
O288       Zn605   2.014       .  S
O288        C295   1.271       .  A
O290        C296   1.272       .  A
C291        C318   1.435       .  S
C292        C308   1.435       .  S
C293        C299   1.434       .  S
C294        C327   1.434       .  S
C295        C305   1.435       .  S
C296        C298   1.434       .  S
C297        C298   1.206       .  T
C299        C300   1.206       .  T
C301        C302   1.206       .  T
C303        C304   1.206       .  T
C305        C306   1.206       .  T
C307        C308   1.206       .  T
C309        C310   1.206       .  T
C311        C312   1.206       .  T
C313        C314   1.206       .  T
C315        C316   1.206       .  T
C317        C318   1.206       .  T
C319        C320   1.206       .  T
C320        C649   1.410   1_456  S
C321        C322   1.206       .  T
C321        C648   1.410   1_554  S
C323        C324   1.206       .  T
C325        C326   1.206       .  T
C327        C328   1.206       .  T
C329        C483   1.465   1_554  S
C329        C487   1.466   1_554  S
C329        C407   1.466       .  S
C329        C410   1.465       .  S
C330        C395   1.466       .  S
C330        C479   1.466       .  S
C330        C481   1.466       .  S
C330        C404   1.465       .  S
Zn331       O335   1.960       .  S
Zn331       O336   2.012       .  S
Zn331       O340   2.016       .  S
Zn331       O347   2.014       .  S
Zn332       O335   1.966       .  S
Zn332       O337   2.022       .  S
Zn332       O339   2.021       .  S
Zn332       O343   2.016       .  S
Zn333       O335   1.960       .  S
Zn333       O338   2.016       .  S
Zn333       O341   2.012       .  S
Zn333       O344   2.014       .  S
Zn334       O335   1.968       .  S
Zn334       O342   2.021       .  S
Zn334       O345   2.020       .  S
Zn334       O346   2.021       .  S
O336        C348   1.271       .  A
O337        C349   1.272       .  A
O338        C350   1.271       .  A
O339        C348   1.272       .  A
O340        C350   1.271       .  A
O341        C349   1.271       .  A
O342        C351   1.272       .  A
O343        C352   1.272       .  A
O344        C351   1.271       .  A
O345        C352   1.272       .  A
O346        C353   1.272       .  A
O347        C353   1.271       .  A
C348        C406   1.434       .  S
C349        C408   1.434       .  S
C350        C391   1.434       .  S
C351        C398   1.435       .  S
C352        C394   1.435       .  S
C353        C396   1.435       .  S
C354        C383   1.465       .  S
C354        C388   1.466       .  S
C354        C389   1.466       .  S
C354        C393   1.466       .  S
C355        C379   1.466       .  S
C355        C382   1.466       .  S
C355        C386   1.465       .  S
C355        C392   1.465       .  S
Zn356       O524   1.966       .  S
Zn356       O365   2.022       .  S
Zn356       O454   2.022   1_554  S
Zn357       O526   2.021       .  S
Zn357       O364   2.020       .  S
Zn357       O614   2.021   1_554  S
Zn358       O360   1.960       .  S
Zn358       O363   2.012       .  S
Zn358       O369   2.016       .  S
Zn359       O442   1.960       .  S
Zn359       O367   2.016       .  S
Zn359       O371   2.012       .  S
O360       Zn520   1.966   1_545  S
O360       Zn441   1.960   1_554  S
O361        C373   1.272       .  A
O362       Zn521   2.021   1_545  S
O362        C374   1.272       .  A
O363        C539   1.271   1_545  A
O364        C373   1.272       .  A
O365        C375   1.272       .  A
O366        C374   1.271       .  A
O367        C458   1.271       .  A
O368       Zn603   2.021   1_545  S
O368        C377   1.272       .  A
O369        C376   1.271       .  A
O370        C377   1.271       .  A
O371        C542   1.271   1_545  A
O372       Zn438   2.022       .  S
O372        C378   1.272       .  A
C373        C400   1.435       .  S
C374        C390   1.435       .  S
C375        O527   1.271       .  A
C375        C381   1.434       .  S
C376        O449   1.271   1_554  A
C376        C409   1.434       .  S
C377        C387   1.435       .  S
C378        O535   1.271       .  A
C378        C380   1.434       .  S
C379        C380   1.206       .  T
C381        C382   1.206       .  T
C383        C384   1.206       .  T
C384        C549   1.410   1_545  S
C385        C386   1.206       .  T
C385        C548   1.410       .  S
C387        C388   1.206       .  T
C389        C390   1.206       .  T
C391        C392   1.206       .  T
C393        C394   1.206       .  T
C395        C396   1.206       .  T
C397        C412   1.466       .  S
C397        C398   1.206       .  T
C399        C412   1.466       .  S
C399        C400   1.206       .  T
C401        C411   1.465       .  S
C401        C402   1.206       .  T
C403        C404   1.206       .  T
C405        C411   1.466       .  S
C405        C406   1.206       .  T
C407        C408   1.206       .  T
C409        C410   1.206       .  T
C411        C489   1.466       .  S
C411        C492   1.465       .  S
C412        C477   1.466   1_554  S
C412        C486   1.465       .  S
Zn413       O417   1.960       .  S
Zn413       O418   2.012       .  S
Zn413       O422   2.016       .  S
Zn413       O429   2.014       .  S
Zn414       O417   1.966       .  S
Zn414       O419   2.021       .  S
Zn414       O421   2.022       .  S
Zn414       O425   2.016       .  S
Zn415       O417   1.960       .  S
Zn415       O420   2.016       .  S
Zn415       O423   2.012       .  S
Zn415       O426   2.014       .  S
Zn416       O417   1.968       .  S
Zn416       O424   2.021       .  S
Zn416       O427   2.020       .  S
Zn416       O428   2.021       .  S
O418        C430   1.271       .  A
O419        C431   1.272       .  A
O420        C432   1.271       .  A
O421        C430   1.272       .  A
O422        C432   1.271       .  A
O423        C431   1.271       .  A
O424        C433   1.272       .  A
O425        C434   1.272       .  A
O426        C433   1.271       .  A
O427        C434   1.272       .  A
O428        C435   1.272       .  A
O429        C435   1.271       .  A
C430        C488   1.435       .  S
C431        C490   1.434       .  S
C432        C473   1.434       .  S
C433        C480   1.435       .  S
C434        C476   1.435       .  S
C435        C478   1.435       .  S
C436        C465   1.465       .  S
C436        C470   1.466       .  S
C436        C471   1.466       .  S
C436        C475   1.466       .  S
C437        C461   1.466       .  S
C437        C464   1.466       .  S
C437        C468   1.465       .  S
C437        C474   1.465       .  S
Zn438       O606   1.966       .  S
Zn438       O447   2.021       .  S
Zn439       O608   2.021       .  S
Zn439       O446   2.020       .  S
Zn439       O532   2.021       .  S
Zn440       O442   1.960       .  S
Zn440       O445   2.012       .  S
Zn440       O451   2.016       .  S
Zn441       O449   2.016       .  S
Zn441       O453   2.012       .  S
O442       Zn602   1.966   1_545  S
O443        C455   1.272       .  A
O444       Zn603   2.021   1_545  S
O444        C456   1.272       .  A
O445        C621   1.271   1_545  A
O446        C455   1.272       .  A
O447        C457   1.272       .  A
O448        C456   1.271       .  A
O450       Zn521   2.021   1_546  S
O450        C459   1.272       .  A
O451        C458   1.271       .  A
O452        C459   1.272       .  A
O453        C624   1.271   1_545  A
O454        C460   1.272       .  A
C455        C482   1.435       .  S
C456        C472   1.435       .  S
C457        O609   1.271       .  A
C457        C463   1.434       .  S
C458        C491   1.434       .  S
C459        C469   1.435       .  S
C460        O617   1.271       .  A
C460        C462   1.434       .  S
C461        C462   1.206       .  T
C463        C464   1.206       .  T
C465        C466   1.206       .  T
C466        C631   1.410   1_545  S
C467        C468   1.206       .  T
C467        C630   1.410       .  S
C469        C470   1.206       .  T
C471        C472   1.206       .  T
C473        C474   1.206       .  T
C475        C476   1.206       .  T
C477        C478   1.206       .  T
C479        C480   1.206       .  T
C481        C482   1.206       .  T
C483        C484   1.206       .  T
C485        C486   1.206       .  T
C487        C488   1.206       .  T
C489        C490   1.206       .  T
C491        C492   1.206       .  T
C493        C647   1.465   1_554  S
C493        C651   1.466   1_554  S
C493        C571   1.466       .  S
C493        C574   1.465       .  S
C494        C559   1.466       .  S
C494        C643   1.466       .  S
C494        C645   1.466       .  S
C494        C568   1.465       .  S
Zn495       O499   1.960       .  S
Zn495       O500   2.012       .  S
Zn495       O504   2.016       .  S
Zn495       O511   2.014       .  S
Zn496       O499   1.966       .  S
Zn496       O501   2.022       .  S
Zn496       O503   2.021       .  S
Zn496       O507   2.016       .  S
Zn497       O499   1.960       .  S
Zn497       O502   2.016       .  S
Zn497       O505   2.012       .  S
Zn497       O508   2.014       .  S
Zn498       O499   1.968       .  S
Zn498       O506   2.021       .  S
Zn498       O509   2.020       .  S
Zn498       O510   2.021       .  S
O500        C512   1.271       .  A
O501        C513   1.272       .  A
O502        C514   1.271       .  A
O503        C512   1.272       .  A
O504        C514   1.271       .  A
O505        C513   1.271       .  A
O506        C515   1.272       .  A
O507        C516   1.272       .  A
O508        C515   1.271       .  A
O509        C516   1.272       .  A
O510        C517   1.272       .  A
O511        C517   1.271       .  A
C512        C570   1.434       .  S
C513        C572   1.434       .  S
C514        C555   1.434       .  S
C515        C562   1.435       .  S
C516        C558   1.435       .  S
C517        C560   1.435       .  S
C518        C547   1.465       .  S
C518        C552   1.466       .  S
C518        C553   1.466       .  S
C518        C557   1.466       .  S
C519        C543   1.466       .  S
C519        C546   1.466       .  S
C519        C550   1.465       .  S
C519        C556   1.465       .  S
Zn520       O529   2.022       .  S
Zn520       O618   2.022   1_554  S
Zn521       O528   2.020       .  S
Zn522       O524   1.960       .  S
Zn522       O527   2.012       .  S
Zn522       O533   2.016       .  S
Zn523       O606   1.960       .  S
Zn523       O531   2.016       .  S
Zn523       O535   2.012       .  S
O524       Zn605   1.960   1_554  S
O525        C537   1.272       .  A
O526        C538   1.272       .  A
O528        C537   1.272       .  A
O529        C539   1.272       .  A
O530        C538   1.272       .  A
O531        C622   1.271       .  A
O532        C541   1.272       .  A
O533        C540   1.271       .  A
O534        C541   1.271       .  A
O536       Zn602   2.022       .  S
O536        C542   1.272       .  A
C537        C564   1.435       .  S
C538        C554   1.435       .  S
C539        C545   1.434       .  S
C540        O613   1.271   1_554  A
C540        C573   1.434       .  S
C541        C551   1.435       .  S
C542        C544   1.434       .  S
C543        C544   1.206       .  T
C545        C546   1.206       .  T
C547        C548   1.206       .  T
C549        C550   1.206       .  T
C551        C552   1.206       .  T
C553        C554   1.206       .  T
C555        C556   1.206       .  T
C557        C558   1.206       .  T
C559        C560   1.206       .  T
C561        C576   1.466       .  S
C561        C562   1.206       .  T
C563        C576   1.466       .  S
C563        C564   1.206       .  T
C565        C575   1.465       .  S
C565        C566   1.206       .  T
C567        C568   1.206       .  T
C569        C575   1.466       .  S
C569        C570   1.206       .  T
C571        C572   1.206       .  T
C573        C574   1.206       .  T
C575        C653   1.466       .  S
C575        C656   1.465       .  S
C576        C641   1.466   1_554  S
C576        C650   1.465       .  S
Zn577       O581   1.960       .  S
Zn577       O582   2.012       .  S
Zn577       O586   2.016       .  S
Zn577       O593   2.014       .  S
Zn578       O581   1.966       .  S
Zn578       O583   2.021       .  S
Zn578       O585   2.022       .  S
Zn578       O589   2.016       .  S
Zn579       O581   1.960       .  S
Zn579       O584   2.016       .  S
Zn579       O587   2.012       .  S
Zn579       O590   2.014       .  S
Zn580       O581   1.968       .  S
Zn580       O588   2.021       .  S
Zn580       O591   2.020       .  S
Zn580       O592   2.021       .  S
O582        C594   1.271       .  A
O583        C595   1.272       .  A
O584        C596   1.271       .  A
O585        C594   1.272       .  A
O586        C596   1.271       .  A
O587        C595   1.271       .  A
O588        C597   1.272       .  A
O589        C598   1.272       .  A
O590        C597   1.271       .  A
O591        C598   1.272       .  A
O592        C599   1.272       .  A
O593        C599   1.271       .  A
C594        C652   1.434       .  S
C595        C654   1.434       .  S
C596        C637   1.434       .  S
C597        C644   1.435       .  S
C598        C640   1.435       .  S
C599        C642   1.435       .  S
C600        C629   1.465       .  S
C600        C634   1.466       .  S
C600        C635   1.466       .  S
C600        C639   1.466       .  S
C601        C625   1.466       .  S
C601        C628   1.466       .  S
C601        C632   1.465       .  S
C601        C638   1.465       .  S
Zn602       O611   2.022       .  S
Zn603       O610   2.020       .  S
Zn604       O606   1.960       .  S
Zn604       O609   2.012       .  S
Zn604       O615   2.016       .  S
Zn605       O613   2.016       .  S
Zn605       O617   2.012       .  S
O607        C619   1.272       .  A
O608        C620   1.272       .  A
O610        C619   1.272       .  A
O611        C621   1.272       .  A
O612        C620   1.271       .  A
O614        C623   1.272       .  A
O615        C622   1.271       .  A
O616        C623   1.271       .  A
O618        C624   1.272       .  A
C619        C646   1.435       .  S
C620        C636   1.435       .  S
C621        C627   1.435       .  S
C622        C655   1.434       .  S
C623        C633   1.435       .  S
C624        C626   1.434       .  S
C625        C626   1.206       .  T
C627        C628   1.206       .  T
C629        C630   1.206       .  T
C631        C632   1.206       .  T
C633        C634   1.206       .  T
C635        C636   1.206       .  T
C637        C638   1.206       .  T
C639        C640   1.206       .  T
C641        C642   1.206       .  T
C643        C644   1.206       .  T
C645        C646   1.206       .  T
C647        C648   1.206       .  T
C649        C650   1.206       .  T
C651        C652   1.206       .  T
C653        C654   1.206       .  T
C655        C656   1.206       .  T
