geometry optimzed in LAMMPS
_audit_creation_date              2020-11-30 
_audit_creation_method            'lammps2cif' 
_symmetry_space_group_name_H-M    'P1' 
_symmetry_Int_Tables_number       1 
_symmetry_cell_setting            triclinic 
loop_ 
_symmetry_equiv_pos_as_xyz 
  x,y,z 
_cell_length_a                    25.49070338 
_cell_length_b                    20.050158193549443 
_cell_length_c                    46.68586945408047 
_cell_angle_alpha                 86.87226604709136 
_cell_angle_beta                  90.03039016745262 
_cell_angle_gamma                 89.2037492056722 
loop_ 
_atom_site_label 
_atom_site_type_symbol 
_atom_site_fract_x 
_atom_site_fract_y 
_atom_site_fract_z 
_atom_site_charge 
N1          N  0.60783777  0.98821110  0.11082877    -0.27000
N2          N  0.58045474  0.95227977  0.09346308    -0.34900
C3          C  0.60590241  0.94861336  0.06860864     0.01300
C4          C  0.65086903  0.98664610  0.06926354     0.07400
C5          C  0.65192574  0.00881245  0.09708314    -0.05700
H6          H  0.58945503  0.92645105  0.05008610     0.08000
H7          H  0.68073434  0.04094809  0.10600203     0.09200
Cu8        Cu  0.50254520  0.42833991  0.09853636     0.44200
Cu9        Cu  0.57659120  0.01254990  0.15022222     0.42000
Cu10       Cu  0.42791404  0.49734495  0.15044153     0.43900
N11         N  0.42319084  0.44485338  0.09271738    -0.34400
N12         N  0.39385869  0.47493598  0.11142441    -0.28600
C13         C  0.34790852  0.49386814  0.09866570    -0.04700
C14         C  0.34991607  0.47820549  0.06980547     0.07500
C15         C  0.39756364  0.44404747  0.06773191     0.01300
H16         H  0.31684456  0.52037280  0.10921027     0.08900
H17         H  0.41475772  0.42572334  0.04843616     0.08000
N18         N  0.47609958  0.51100022  0.18595348    -0.35800
N19         N  0.52781317  0.01743438  0.18601855    -0.28000
C20         C  0.54422760  0.02153591  0.21330012    -0.03300
C21         C  0.50102896  0.01727131  0.23133858     0.05400
C22         C  0.45872721  0.01059940  0.21314371     0.03400
H23         H  0.58500729  0.02358671  0.21953682     0.08500
H24         H  0.41811241  0.50424315  0.21922083     0.07400
N25         N  0.39386784  0.50915062  0.47679843    -0.27000
N26         N  0.41911574  0.54784813  0.49391634    -0.34900
C27         C  0.39231315  0.55197072  0.01840661     0.01300
C28         C  0.34874069  0.51113410  0.51778208     0.07400
C29         C  0.35007594  0.48670875  0.49029381    -0.05700
H30         H  0.40649540  0.57708550  0.03677182     0.08000
H31         H  0.32265703  0.45311487  0.48114735     0.09200
Cu32       Cu  0.49676178  0.57282204  0.48802577     0.44200
Cu33       Cu  0.42807480  0.48595208  0.43791165     0.42000
Cu34       Cu  0.57609097  0.99953051  0.43588084     0.43900
N35         N  0.57590683  0.05302861  0.49369883    -0.34400
N36         N  0.60659774  0.02416598  0.47518373    -0.28600
C37         C  0.65239901  0.00638922  0.48833766    -0.04700
C38         C  0.64879758  0.02094015  0.51719514     0.07500
C39         C  0.60025745  0.05293458  0.01902346     0.01300
H40         H  0.68409067  0.97988599  0.47830017     0.08900
H41         H  0.58138099  0.06907271  0.03822527     0.08000
N42         N  0.52722302  0.98740562  0.40080929    -0.35800
N43         N  0.47539322  0.98262896  0.40143905    -0.28000
C44         C  0.45745261  0.98231844  0.37432579    -0.03300
C45         C  0.49972054  0.98735041  0.35570331     0.05400
C46         C  0.54320852  0.99022362  0.37334419     0.03400
H47         H  0.41631295  0.48267957  0.36868008     0.08500
H48         H  0.58358427  0.99640103  0.36670831     0.07400
C49         C  0.18518246  0.24854421  0.04472973    -0.02200
C50         C  0.31306537  0.49604810  0.04402231    -0.02200
N51         N  0.10639734  0.23459687  0.11254130    -0.27000
N52         N  0.08081902  0.19601267  0.09550527    -0.34900
C53         C  0.10724215  0.19178203  0.07093502     0.01300
C54         C  0.15068286  0.23276782  0.07131615     0.07400
C55         C  0.14989892  0.25722166  0.09879089    -0.05700
H56         H  0.09249822  0.16714070  0.05257214     0.08000
H57         H  0.17729464  0.29125555  0.10766570     0.09200
Cu58       Cu  0.00252096  0.17423008  0.10044154     0.44200
Cu59       Cu  0.07274285  0.25751760  0.15158006     0.42000
Cu60       Cu  0.92399094  0.24787530  0.15143078     0.43900
N61         N  0.92472625  0.19941817  0.09308380    -0.34400
N62         N  0.89373931  0.22729209  0.11170454    -0.28600
C63         C  0.84830912  0.24627702  0.09846729    -0.04700
C64         C  0.85254244  0.23368505  0.06944066     0.07500
C65         C  0.90124553  0.20205014  0.06747145     0.01300
H66         H  0.81629838  0.27180783  0.10867080     0.08900
H67         H  0.92036935  0.18666018  0.04820985     0.08000
N68         N  0.97168934  0.25520142  0.18717979    -0.35800
N69         N  0.02360125  0.25867649  0.18739845    -0.28000
C70         C  0.03995919  0.25842920  0.21479711    -0.03300
C71         C  0.99659219  0.25418498  0.23266670     0.05400
C72         C  0.95405281  0.25270568  0.21432326     0.03400
H73         H  0.08071434  0.25906398  0.22124426     0.08500
H74         H  0.91304364  0.24986164  0.22005166     0.07400
N75         N  0.89314278  0.26581245  0.47633759    -0.27000
N76         N  0.91876346  0.30464968  0.49328334    -0.34900
C77         C  0.89261255  0.30840395  0.01789808     0.01300
C78         C  0.84924226  0.26739104  0.51753187     0.07400
C79         C  0.84970826  0.24313348  0.49010628    -0.05700
H80         H  0.90810036  0.33202838  0.03628459     0.08000
H81         H  0.82265577  0.20822566  0.48152293     0.09200
Cu82       Cu  0.99708446  0.32804785  0.48914969     0.44200
Cu83       Cu  0.92652663  0.24012203  0.43788919     0.42000
Cu84       Cu  0.07436477  0.25753625  0.43764009     0.43900
N85         N  0.07528386  0.30396233  0.49646171    -0.34400
N86         N  0.10526397  0.27558711  0.47752401    -0.28600
C87         C  0.15039198  0.25420697  0.49040103    -0.04700
C88         C  0.14720591  0.26597867  0.51954646     0.07500
C89         C  0.09970291  0.30054532  0.02189547     0.01300
H90         H  0.18189600  0.22923017  0.47955979     0.08900
H91         H  0.08234803  0.31783060  0.04134519     0.08000
N92         N  0.02689850  0.24426659  0.40224321    -0.35800
N93         N  0.97528026  0.23723144  0.40228304    -0.28000
C94         C  0.95866812  0.23413984  0.37506760    -0.03300
C95         C  0.00155477  0.24015938  0.35695515     0.05400
C96         C  0.04414409  0.24573753  0.37505657     0.03400
H97         H  0.91790711  0.23092522  0.36889986     0.08500
H98         H  0.08489586  0.25117752  0.36916291     0.07400
C99         C  0.81517597  0.25061520  0.04400195    -0.02200
C100        C  0.68544982  0.50309061  0.04290745    -0.02200
C101        C  0.71956198  0.06669017  0.04494551    -0.05200
C102        C  0.76960518  0.06918916  0.03198912    -0.32600
C103        C  0.80117550  0.12592916  0.03221488     0.36600
C104        C  0.78129661  0.18668278  0.04239552    -0.05500
C105        C  0.73134825  0.18415283  0.05546840    -0.32500
C106        C  0.69996783  0.12716457  0.05557262     0.36500
H107        H  0.78541307  0.02636977  0.02161719     0.16900
O108        O  0.85172333  0.12055791  0.02249816    -0.60000
H109        H  0.71561633  0.22700755  0.06584683     0.16900
O110        O  0.65001155  0.13189477  0.06623117    -0.60100
H111        H  0.63118457  0.16467213  0.05311599     0.43900
H112        H  0.86969216  0.08838661  0.03625860     0.43900
C113        C  0.78101726  0.31556200  0.04565636    -0.05200
C114        C  0.73732641  0.32393312  0.02705233    -0.32600
C115        C  0.70513237  0.38140814  0.02610954     0.36600
C116        C  0.71934418  0.43788251  0.04128409    -0.05500
C117        C  0.76291101  0.42935853  0.05994434    -0.32500
C118        C  0.79517077  0.37199072  0.06084107     0.36500
H119        H  0.72660577  0.28402815  0.01354891     0.16900
O120        O  0.65867292  0.37935641  0.01143977    -0.60000
H121        H  0.77357425  0.46912821  0.07352639     0.16900
O122        O  0.84161105  0.37399670  0.07554560    -0.60100
H123        H  0.86297510  0.40829365  0.06501743     0.43900
H124        H  0.63649127  0.34734570  0.52275590     0.43900
C125        C  0.00084018  0.24386385  0.32514029    -0.05200
C126        C  0.96032519  0.21286909  0.31066126    -0.32600
C127        C  0.95779421  0.21633377  0.28065024     0.36600
C128        C  0.99663419  0.25078706  0.26446266    -0.05500
C129        C  0.03690241  0.28205654  0.27893883    -0.32500
C130        C  0.03923924  0.27903369  0.30891036     0.36500
H131        H  0.93066168  0.18498244  0.32259745     0.16900
O132        O  0.91866074  0.18307724  0.26747685    -0.60000
H133        H  0.06648617  0.31006802  0.26699192     0.16900
O134        O  0.07767595  0.31368216  0.32198577    -0.60100
H135        H  0.11051362  0.28756282  0.31936811     0.43900
H136        H  0.88646060  0.21059620  0.26986365     0.43900
C137        C  0.27794009  0.43362425  0.04267236    -0.05200
C138        C  0.29629962  0.37619033  0.02953913    -0.32600
C139        C  0.26688667  0.31762366  0.02948095     0.36600
C140        C  0.21979333  0.31139352  0.04559635    -0.05500
C141        C  0.20127192  0.36880673  0.05864030    -0.32500
C142        C  0.23024053  0.42780498  0.05830812     0.36500
H143        H  0.33429436  0.37558222  0.01934144     0.16900
O144        O  0.28367831  0.26787615  0.01244893    -0.60000
H145        H  0.16339746  0.36901647  0.06900237     0.16900
O146        O  0.21225461  0.47851603  0.07446185    -0.60100
H147        H  0.17972891  0.49582817  0.06481613     0.43900
H148        H  0.31662267  0.24975443  0.52132902     0.43900
C149        C  0.27968239  0.06142993  0.04480950    -0.05200
C150        C  0.29039058  0.11194024  0.06365494    -0.32600
C151        C  0.25988764  0.17067026  0.06379737     0.36600
C152        C  0.21908818  0.18371875  0.04343894    -0.05500
C153        C  0.20890867  0.13370160  0.02424402    -0.32500
C154        C  0.23954732  0.07498681  0.02408886     0.36500
H155        H  0.32377338  0.10843164  0.07779695     0.16900
O156        O  0.27009095  0.21528849  0.08431943    -0.60000
H157        H  0.17603855  0.13778718  0.00973883     0.16900
O158        O  0.23036942  0.03109875  0.00313195    -0.60100
H159        H  0.19620456  0.01032365  0.00803322     0.43900
H160        H  0.30400762  0.23594990  0.07877561     0.43900
C161        C  0.50021381  0.01220581  0.26322582    -0.05200
C162        C  0.46120374  0.47423609  0.27745683    -0.32600
C163        C  0.46013817  0.46613903  0.30744753     0.36600
C164        C  0.49874274  0.99602840  0.32392141    -0.05500
C165        C  0.53714279  0.03511371  0.30974815    -0.32500
C166        C  0.53813546  0.04336810  0.27974065     0.36500
H167        H  0.43196759  0.44906132  0.26532404     0.16900
O168        O  0.42292985  0.42582139  0.32028305    -0.60000
H169        H  0.56635478  0.06017644  0.32195463     0.16900
O170        O  0.57494813  0.08430092  0.26690500    -0.60100
H171        H  0.60872414  0.05933741  0.26903914     0.43900
H172        H  0.38971995  0.45220337  0.31891859     0.43900
N173        N  0.60783629  0.98821414  0.61082766    -0.27000
N174        N  0.58045607  0.95227674  0.59346305    -0.34900
C175        C  0.60590444  0.94860887  0.56860889     0.01300
C176        C  0.65086829  0.98664714  0.56926269     0.07400
C177        C  0.65192283  0.00881860  0.59708149    -0.05700
H178        H  0.58945855  0.92644265  0.55008692     0.08000
H179        H  0.68072876  0.04095943  0.60599942     0.09200
Cu180      Cu  0.50254683  0.42833280  0.59853585     0.44200
Cu181      Cu  0.57658817  0.01255467  0.65022063     0.42000
Cu182      Cu  0.42791372  0.49733664  0.65044106     0.43900
N183        N  0.42319213  0.44484455  0.59271656    -0.34400
N184        N  0.39385939  0.47492570  0.61142381    -0.28600
C185        C  0.34790823  0.49385492  0.59866555    -0.04700
C186        C  0.34991529  0.47819146  0.56980545     0.07500
C187        C  0.39756418  0.44403669  0.56773130     0.01300
H188        H  0.31684380  0.52035851  0.60921022     0.08900
H189        H  0.41475814  0.42571346  0.54843532     0.08000
N190        N  0.47609832  0.51099337  0.68595336    -0.35800
N191        N  0.52781165  0.01743225  0.68601792    -0.28000
C192        C  0.54422673  0.02153314  0.71329941    -0.03300
C193        C  0.50102898  0.01726328  0.73133846     0.05400
C194        C  0.45872712  0.01058865  0.71314386     0.03400
H195        H  0.58500650  0.02358786  0.71953553     0.08500
H196        H  0.41811249  0.50422862  0.71922129     0.07400
N197        N  0.39387602  0.50914588  0.97679941    -0.27000
N198        N  0.41912410  0.54784604  0.99391607    -0.34900
C199        C  0.39230647  0.55196488  0.51840775     0.01300
C200        C  0.34874519  0.51114340  0.01778160     0.07400
C201        C  0.35008223  0.48670999  0.99029474    -0.05700
H202        H  0.40648893  0.57707641  0.53677379     0.08000
H203        H  0.32266320  0.45311437  0.98114951     0.09200
Cu204      Cu  0.49677029  0.57281722  0.98802361     0.44200
Cu205      Cu  0.42808508  0.48594160  0.93791371     0.42000
Cu206      Cu  0.57610232  0.99952146  0.93588021     0.43900
N207        N  0.57591538  0.05302596  0.99369717    -0.34400
N208        N  0.60660700  0.02416051  0.97518325    -0.28600
C209        C  0.65240722  0.00638430  0.98833843    -0.04700
C210        C  0.64880394  0.02093862  0.01719549     0.07500
C211        C  0.60025037  0.05293419  0.51902484     0.01300
H212        H  0.68409912  0.97987878  0.97830220     0.08900
H213        H  0.58137503  0.06906984  0.53822736     0.08000
N214        N  0.52723153  0.98739933  0.90080936    -0.35800
N215        N  0.47540174  0.98262241  0.90144019    -0.28000
C216        C  0.45745917  0.98231383  0.87432726    -0.03300
C217        C  0.49972566  0.98734713  0.85570379     0.05400
C218        C  0.54321497  0.99021935  0.87334384     0.03400
H219        H  0.41631920  0.48267449  0.86868260     0.08500
H220        H  0.58359027  0.99639683  0.86670713     0.07400
C221        C  0.18518008  0.24852841  0.54473027    -0.02200
C222        C  0.31306304  0.49603250  0.54402294    -0.02200
N223        N  0.10639769  0.23458027  0.61254288    -0.27000
N224        N  0.08081558  0.19600156  0.59550619    -0.34900
C225        C  0.10723640  0.19177197  0.57093512     0.01300
C226        C  0.15068024  0.23275222  0.57131668     0.07400
C227        C  0.14990053  0.25720051  0.59879256    -0.05700
H228        H  0.09248933  0.16713510  0.55257183     0.08000
H229        H  0.17730010  0.29122814  0.60766836     0.09200
Cu230      Cu  0.00251708  0.17422513  0.60044331     0.44200
Cu231      Cu  0.07274524  0.25750585  0.65158149     0.42000
Cu232      Cu  0.92399029  0.24786982  0.65143206     0.43900
N233        N  0.92472421  0.19941899  0.59308406    -0.34400
N234        N  0.89373713  0.22729247  0.61170483    -0.28600
C235        C  0.84830726  0.24627829  0.59846712    -0.04700
C236        C  0.85254123  0.23368742  0.56944026     0.07500
C237        C  0.90124445  0.20205254  0.56747142     0.01300
H238        H  0.81629599  0.27180821  0.60867052     0.08900
H239        H  0.92036870  0.18666226  0.54820999     0.08000
N240        N  0.97169107  0.25519196  0.68718122    -0.35800
N241        N  0.02360312  0.25866739  0.68739950    -0.28000
C242        C  0.03996208  0.25842119  0.71479798    -0.03300
C243        C  0.99659580  0.25417671  0.73266790     0.05400
C244        C  0.95405568  0.25269618  0.71432498     0.03400
H245        H  0.08071735  0.25905745  0.72124481     0.08500
H246        H  0.91304676  0.24985238  0.72005416     0.07400
N247        N  0.89314195  0.26581356  0.97633795    -0.27000
N248        N  0.91876293  0.30464987  0.99328388    -0.34900
C249        C  0.89261233  0.30840469  0.51789729     0.01300
C250        C  0.84924229  0.26739078  0.01753256     0.07400
C251        C  0.84970741  0.24313460  0.99010665    -0.05700
H252        H  0.90809933  0.33203050  0.53628367     0.08000
H253        H  0.82265459  0.20822735  0.98152319     0.09200
Cu254      Cu  0.99708334  0.32804749  0.98914929     0.44200
Cu255      Cu  0.92652875  0.24012570  0.93788990     0.42000
Cu256      Cu  0.07437146  0.25756013  0.93763877     0.43900
N257        N  0.07528381  0.30397157  0.99646178    -0.34400
N258        N  0.10526853  0.27560711  0.97752317    -0.28600
C259        C  0.15039799  0.25423184  0.99040001    -0.04700
C260        C  0.14720767  0.26599388  0.01954623     0.07500
C261        C  0.09970507  0.30053911  0.52189491     0.01300
H262        H  0.18190561  0.22926335  0.97955822     0.08900
H263        H  0.08235371  0.31783190  0.54134417     0.08000
N264        N  0.02690210  0.24428936  0.90224353    -0.35800
N265        N  0.97528454  0.23724593  0.90228401    -0.28000
C266        C  0.95867222  0.23415165  0.87506874    -0.03300
C267        C  0.00155775  0.24017800  0.85695590     0.05400
C268        C  0.04414670  0.24576359  0.87505673     0.03400
H269        H  0.91791160  0.23092865  0.86890143     0.08500
H270        H  0.08489786  0.25120880  0.86916259     0.07400
C271        C  0.81517493  0.25061670  0.54400101    -0.02200
C272        C  0.68544679  0.50309227  0.54290592    -0.02200
C273        C  0.71955923  0.06669241  0.54494321    -0.05200
C274        C  0.76960384  0.06919015  0.53198835    -0.32600
C275        C  0.80117461  0.12592981  0.53221468     0.36600
C276        C  0.78129536  0.18668426  0.54239436    -0.05500
C277        C  0.73134548  0.18415563  0.55546551    -0.32500
C278        C  0.69996458  0.12716777  0.55556921     0.36500
H279        H  0.78541253  0.02637030  0.52161712     0.16900
O280        O  0.85172328  0.12055748  0.52249935    -0.60000
H281        H  0.71561274  0.22701101  0.56584313     0.16900
O282        O  0.65000747  0.13189912  0.56622645    -0.60100
H283        H  0.63118189  0.16467638  0.55311061     0.43900
H284        H  0.86969078  0.08838690  0.53626066     0.43900
C285        C  0.78101590  0.31556395  0.54565424    -0.05200
C286        C  0.73732655  0.32393583  0.52704903    -0.32600
C287        C  0.70513168  0.38141059  0.52610612     0.36600
C288        C  0.71934155  0.43788418  0.54128183    -0.05500
C289        C  0.76290729  0.42935946  0.55994283    -0.32500
C290        C  0.79516743  0.37199194  0.56083981     0.36500
H291        H  0.72660721  0.28403111  0.51354515     0.16900
O292        O  0.65867269  0.37935839  0.51143592    -0.60000
H293        H  0.77356917  0.46912844  0.57352553     0.16900
O294        O  0.84160633  0.37399760  0.57554555    -0.60100
H295        H  0.86297191  0.40829295  0.56501737     0.43900
H296        H  0.63649096  0.34734582  0.02276047     0.43900
C297        C  0.00084305  0.24387603  0.82514116    -0.05200
C298        C  0.96033273  0.21286893  0.81066343    -0.32600
C299        C  0.95780283  0.21632542  0.78065238     0.36600
C300        C  0.99663862  0.25078372  0.76446374    -0.05500
C301        C  0.03690250  0.28206488  0.77893854    -0.32500
C302        C  0.03923848  0.27904978  0.80891007     0.36500
H303        H  0.93067258  0.18497853  0.82260063     0.16900
O304        O  0.91867539  0.18305580  0.76748001    -0.60000
H305        H  0.06648291  0.31007980  0.76699052     0.16900
O306        O  0.07767010  0.31370944  0.82198420    -0.60100
H307        H  0.11051151  0.28759731  0.81936702     0.43900
H308        H  0.88647020  0.21056518  0.76986677     0.43900
C309        C  0.27793980  0.43360677  0.54267348    -0.05200
C310        C  0.29629224  0.37617823  0.52953345    -0.32600
C311        C  0.26687787  0.31761220  0.52947547     0.36600
C312        C  0.21979136  0.31137750  0.54559656    -0.05500
C313        C  0.20127721  0.36878578  0.55864684    -0.32500
C314        C  0.23024820  0.42778165  0.55831589     0.36500
H315        H  0.33428281  0.37557257  0.51933117     0.16900
O316        O  0.28366153  0.26786895  0.51243909    -0.60000
H317        H  0.16340634  0.36899484  0.56901262     0.16900
O318        O  0.21227252  0.47848544  0.57447675    -0.60100
H319        H  0.17974507  0.49580709  0.56483585     0.43900
H320        H  0.31663973  0.24976977  0.02134143     0.43900
C321        C  0.27967744  0.06141180  0.54481146    -0.05200
C322        C  0.29038947  0.11192537  0.56365473    -0.32600
C323        C  0.25988789  0.17065664  0.56379665     0.36600
C324        C  0.21908582  0.18370299  0.54343964    -0.05500
C325        C  0.20890076  0.13368108  0.52424779    -0.32500
C326        C  0.23953799  0.07496504  0.52409313     0.36500
H327        H  0.32377437  0.10841810  0.57779535     0.16900
O328        O  0.27009433  0.21527710  0.58431731    -0.60000
H329        H  0.17602716  0.13776399  0.50974490     0.16900
O330        O  0.23035504  0.03107298  0.50313846    -0.60100
H331        H  0.19619166  0.01029790  0.50804316     0.43900
H332        H  0.30400942  0.23593954  0.57877099     0.43900
C333        C  0.50021474  0.01219918  0.76322588    -0.05200
C334        C  0.46120431  0.47423129  0.77745779    -0.32600
C335        C  0.46013945  0.46613652  0.80744862     0.36600
C336        C  0.49874573  0.99602497  0.82392179    -0.05500
C337        C  0.53714550  0.03510920  0.80974770    -0.32500
C338        C  0.53813692  0.04336235  0.77974011     0.36500
H339        H  0.43196719  0.44905667  0.76532563     0.16900
O340        O  0.42292988  0.42582221  0.82028499    -0.60000
H341        H  0.56635828  0.06017208  0.82195356     0.16900
O342        O  0.57494904  0.08429481  0.76690376    -0.60100
H343        H  0.60872533  0.05933209  0.76903825     0.43900
H344        H  0.38972112  0.45220652  0.81892067     0.43900
N345        N  0.60784963  0.48818712  0.11082311    -0.27000
N346        N  0.58046276  0.45226771  0.09345440    -0.34900
C347        C  0.60590550  0.44861723  0.06859779     0.01300
C348        C  0.65087352  0.48664631  0.06925522     0.07400
C349        C  0.65193619  0.50879388  0.09707780    -0.05700
H350        H  0.58945485  0.42646602  0.05007349     0.08000
H351        H  0.68074810  0.54092062  0.10599948     0.09200
Cu352      Cu  0.50253499  0.92836094  0.09854479     0.44200
Cu353      Cu  0.57661106  0.51251414  0.15021966     0.42000
Cu354      Cu  0.42788991  0.99733671  0.15045115     0.43900
N355        N  0.42318018  0.94486827  0.09272323    -0.34400
N356        N  0.39384080  0.97493666  0.11143134    -0.28600
C357        C  0.34789071  0.99386557  0.09867145    -0.04700
C358        C  0.34990628  0.97821682  0.06980961     0.07500
C359        C  0.39755824  0.94406906  0.06773602     0.01300
H360        H  0.31682135  0.02035987  0.10921630     0.08900
H361        H  0.41475781  0.92575458  0.04843984     0.08000
N362        N  0.47608117  0.01100396  0.18595972    -0.35800
N363        N  0.52783296  0.51741242  0.18601486    -0.28000
C364        C  0.54424447  0.52151132  0.21329706    -0.03300
C365        C  0.50104209  0.51726514  0.23133337     0.05400
C366        C  0.45874135  0.51060522  0.21313656     0.03400
H367        H  0.58502384  0.52354963  0.21953571     0.08500
H368        H  0.41810069  0.00422165  0.21922992     0.07400
N369        N  0.39385847  0.00917386  0.47680223    -0.27000
N370        N  0.41910609  0.04786819  0.49392156    -0.34900
C371        C  0.39230276  0.05198722  0.01841190     0.01300
C372        C  0.34873110  0.01114884  0.51778616     0.07400
C373        C  0.35006686  0.98672871  0.49029689    -0.05700
H374        H  0.40648488  0.07709861  0.03677808     0.08000
H375        H  0.32264872  0.95313559  0.48114935     0.09200
Cu376      Cu  0.49675479  0.07283207  0.48803313     0.44200
Cu377      Cu  0.42806719  0.98598112  0.43791494     0.42000
Cu378      Cu  0.57609551  0.49950941  0.43587759     0.43900
N379        N  0.57591527  0.55303064  0.49369153    -0.34400
N380        N  0.60660398  0.52415885  0.47517810    -0.28600
C381        C  0.65240578  0.50638577  0.48833193    -0.04700
C382        C  0.64880774  0.52095051  0.51718784     0.07500
C383        C  0.60026893  0.55294885  0.01901496     0.01300
H384        H  0.68409498  0.47987487  0.47829591     0.08900
H385        H  0.58139438  0.56909315  0.03821623     0.08000
N386        N  0.52722876  0.48739285  0.40080493    -0.35800
N387        N  0.47539932  0.48261256  0.40143495    -0.28000
C388        C  0.45745767  0.48231141  0.37432171    -0.03300
C389        C  0.49972448  0.48735342  0.35569867     0.05400
C390        C  0.54321310  0.49022282  0.37333955     0.03400
H391        H  0.41630820  0.98268743  0.36868327     0.08500
H392        H  0.58358849  0.49640455  0.36670377     0.07400
C393        C  0.18519292  0.74853657  0.04473109    -0.02200
C394        C  0.31305559  0.99605700  0.04402613    -0.02200
N395        N  0.10640404  0.73456433  0.11254091    -0.27000
N396        N  0.08082756  0.69598487  0.09550211    -0.34900
C397        C  0.10725264  0.69176270  0.07093198     0.01300
C398        C  0.15069259  0.73274964  0.07131628     0.07400
C399        C  0.14990587  0.75719504  0.09879251    -0.05700
H400        H  0.09251036  0.66712699  0.05256723     0.08000
H401        H  0.17729983  0.79122768  0.10766975     0.09200
Cu402      Cu  0.00252856  0.67420116  0.10043595     0.44200
Cu403      Cu  0.07274686  0.75747124  0.15158076     0.42000
Cu404      Cu  0.92399658  0.74782249  0.15143336     0.43900
N405        N  0.92473450  0.69940018  0.09308019    -0.34400
N406        N  0.89374748  0.72726422  0.11170375    -0.28600
C407        C  0.84831859  0.74626001  0.09846758    -0.04700
C408        C  0.85255263  0.73368525  0.06943934     0.07500
C409        C  0.90125474  0.70204877  0.06746749     0.01300
H410        H  0.81630748  0.77178426  0.10867367     0.08900
H411        H  0.92037764  0.68666591  0.04820443     0.08000
N412        N  0.97169545  0.75515338  0.18718181    -0.35800
N413        N  0.02360722  0.75863020  0.18739984    -0.28000
C414        C  0.03996581  0.75839367  0.21479817    -0.03300
C415        C  0.99659920  0.75415576  0.23266823     0.05400
C416        C  0.95405951  0.75266814  0.21432529     0.03400
H417        H  0.08072103  0.75903401  0.22124482     0.08500
H418        H  0.91305031  0.74982805  0.22005394     0.07400
N419        N  0.89315165  0.76582098  0.47633898    -0.27000
N420        N  0.91877152  0.80465813  0.49328512    -0.34900
C421        C  0.89261794  0.80841459  0.01789939     0.01300
C422        C  0.84924746  0.76740130  0.51753191     0.07400
C423        C  0.84971548  0.74314369  0.49010637    -0.05700
H424        H  0.90810455  0.83203808  0.03628653     0.08000
H425        H  0.82266403  0.70823554  0.48152240     0.09200
Cu426      Cu  0.99709479  0.82804799  0.48915317     0.44200
Cu427      Cu  0.92653776  0.74012582  0.43789205     0.42000
Cu428      Cu  0.07437439  0.75753273  0.43764190     0.43900
N429        N  0.07529383  0.80395700  0.49646418    -0.34400
N430        N  0.10527247  0.77557968  0.47752632    -0.28600
C431        C  0.15040049  0.75419822  0.49040285    -0.04700
C432        C  0.14721629  0.76597244  0.51954806     0.07500
C433        C  0.09971466  0.80054115  0.02189756     0.01300
H434        H  0.18190356  0.72922024  0.47956132     0.08900
H435        H  0.08236142  0.81782746  0.04134753     0.08000
N436        N  0.02690735  0.74427353  0.40224463    -0.35800
N437        N  0.97528907  0.73723960  0.40228505    -0.28000
C438        C  0.95867543  0.73415192  0.37506976    -0.03300
C439        C  0.00156125  0.74017250  0.35695674     0.05400
C440        C  0.04415162  0.74574804  0.37505768     0.03400
H441        H  0.91791412  0.73093700  0.36890269     0.08500
H442        H  0.08490333  0.75118624  0.36916361     0.07400
C443        C  0.81518300  0.75061898  0.04400244    -0.02200
C444        C  0.68544329  0.00308477  0.04291407    -0.02200
C445        C  0.71956923  0.56669437  0.04494209    -0.05200
C446        C  0.76960882  0.56919793  0.03198160    -0.32600
C447        C  0.80118062  0.62593611  0.03220978     0.36600
C448        C  0.78130457  0.68668603  0.04239536    -0.05500
C449        C  0.73136013  0.68415135  0.05547276    -0.32500
C450        C  0.69997933  0.62716344  0.05557608     0.36500
H451        H  0.78541323  0.52638219  0.02160562     0.16900
O452        O  0.85172738  0.62056581  0.02249135    -0.60000
H453        H  0.71563156  0.72700258  0.06585508     0.16900
O454        O  0.65002659  0.63188937  0.06623988    -0.60100
H455        H  0.63119494  0.66466921  0.05312802     0.43900
H456        H  0.86969756  0.58839390  0.03625096     0.43900
C457        C  0.78102074  0.81556233  0.04565927    -0.05200
C458        C  0.73733025  0.82393317  0.02705486    -0.32600
C459        C  0.70513326  0.88140570  0.02611320     0.36600
C460        C  0.71933860  0.93787632  0.04129178    -0.05500
C461        C  0.76290339  0.92935122  0.05995374    -0.32500
C462        C  0.79516769  0.87198680  0.06084826     0.36500
H463        H  0.72661310  0.78403003  0.01354963     0.16900
O464        O  0.65867689  0.87935428  0.01144065    -0.60000
H465        H  0.77356253  0.96911920  0.07353766     0.16900
O466        O  0.84160655  0.87399292  0.07555410    -0.60100
H467        H  0.86297140  0.90828931  0.06502609     0.43900
H468        H  0.63649113  0.84734910  0.52275756     0.43900
C469        C  0.00084569  0.74387065  0.32514188    -0.05200
C470        C  0.96032837  0.71287587  0.31066483    -0.32600
C471        C  0.95779801  0.71632971  0.28065393     0.36600
C472        C  0.99664102  0.75077170  0.26446423    -0.05500
C473        C  0.03691130  0.78204262  0.27893835    -0.32500
C474        C  0.03924736  0.77903086  0.30890998     0.36500
H475        H  0.93066279  0.68499634  0.32260245     0.16900
O476        O  0.91866197  0.68307271  0.26748294    -0.60000
H477        H  0.06649739  0.81004612  0.26698975     0.16900
O478        O  0.07768620  0.81367988  0.32198333    -0.60100
H479        H  0.11052233  0.78755617  0.31936730     0.43900
H480        H  0.88646347  0.71059543  0.26986862     0.43900
C481        C  0.27793435  0.93362988  0.04267554    -0.05200
C482        C  0.29629640  0.87620063  0.02953998    -0.32600
C483        C  0.26688802  0.81763053  0.02948137     0.36600
C484        C  0.21979892  0.81139004  0.04559986    -0.05500
C485        C  0.20127510  0.86879833  0.05864685    -0.32500
C486        C  0.23023761  0.92780200  0.05831347     0.36500
H487        H  0.33428968  0.87559875  0.01934060     0.16900
O488        O  0.28367956  0.76788955  0.01244591    -0.60000
H489        H  0.16340271  0.86900083  0.06901123     0.16900
O490        O  0.21224823  0.97851048  0.07446759    -0.60100
H491        H  0.17972312  0.99582170  0.06482099     0.43900
H492        H  0.31662773  0.74977070  0.52132305     0.43900
C493        C  0.27969649  0.56142527  0.04480536    -0.05200
C494        C  0.29041108  0.61193866  0.06364837    -0.32600
C495        C  0.25990830  0.67066899  0.06379245     0.36600
C496        C  0.21910307  0.68371521  0.04343731    -0.05500
C497        C  0.20891934  0.63369661  0.02424372    -0.32500
C498        C  0.23955829  0.57498238  0.02408668     0.36500
H499        H  0.32379844  0.60843183  0.07778723     0.16900
O500        O  0.27011677  0.71528854  0.08431322    -0.60000
H501        H  0.17604485  0.63777994  0.00974145     0.16900
O502        O  0.23037634  0.53109399  0.00313041    -0.60100
H503        H  0.19620936  0.51032445  0.00803164     0.43900
H504        H  0.30403328  0.73594779  0.07876736     0.43900
C505        C  0.50022158  0.51220785  0.26322068    -0.05200
C506        C  0.46120506  0.97421820  0.27746204    -0.32600
C507        C  0.46014179  0.96611884  0.30745269     0.36600
C508        C  0.49874560  0.49603581  0.32391661    -0.05500
C509        C  0.53715275  0.53510953  0.30974328    -0.32500
C510        C  0.53814803  0.54336081  0.27973568     0.36500
H511        H  0.43197383  0.94903460  0.26532936     0.16900
O512        O  0.42294244  0.92578796  0.32028866    -0.60000
H513        H  0.56636956  0.56016407  0.32194961     0.16900
O514        O  0.57496925  0.58428053  0.26689994    -0.60100
H515        H  0.60874031  0.55930610  0.26903480     0.43900
H516        H  0.38972670  0.95215769  0.31892404     0.43900
N517        N  0.60784776  0.48819039  0.61082204    -0.27000
N518        N  0.58046382  0.45226469  0.59345445    -0.34900
C519        C  0.60590753  0.44861247  0.56859824     0.01300
C520        C  0.65087273  0.48664717  0.56925453     0.07400
C521        C  0.65193299  0.50880015  0.59707619    -0.05700
H522        H  0.58945852  0.42645702  0.55007453     0.08000
H523        H  0.68074225  0.54093208  0.60599690     0.09200
Cu524      Cu  0.50253692  0.92835427  0.59854427     0.44200
Cu525      Cu  0.57660790  0.51251898  0.65021814     0.42000
Cu526      Cu  0.42788972  0.99732890  0.65045057     0.43900
N527        N  0.42318176  0.94485969  0.59272235    -0.34400
N528        N  0.39384171  0.97492652  0.61143068    -0.28600
C529        C  0.34789058  0.99385229  0.59867123    -0.04700
C530        C  0.34990567  0.97820272  0.56980955     0.07500
C531        C  0.39755906  0.94405852  0.56773535     0.01300
H532        H  0.31682073  0.02034549  0.60921618     0.08900
H533        H  0.41475859  0.92574514  0.54843893     0.08000
N534        N  0.47608012  0.01099704  0.68595956    -0.35800
N535        N  0.52783122  0.51741064  0.68601429    -0.28000
C536        C  0.54424338  0.52150896  0.71329643    -0.03300
C537        C  0.50104182  0.51725728  0.73133328     0.05400
C538        C  0.45874097  0.51059446  0.71313672     0.03400
H539        H  0.58502278  0.52355124  0.71953455     0.08500
H540        H  0.41810112  0.00420734  0.71923042     0.07400
N541        N  0.39386663  0.00916932  0.97680329    -0.27000
N542        N  0.41911451  0.04786611  0.99392140    -0.34900
C543        C  0.39229607  0.05198118  0.51841297     0.01300
C544        C  0.34873550  0.01115854  0.01778573     0.07400
C545        C  0.35007300  0.98673047  0.99029790    -0.05700
H546        H  0.40647834  0.07708922  0.53677999     0.08000
H547        H  0.32265457  0.95313573  0.98115160     0.09200
Cu548      Cu  0.49676336  0.07282725  0.98803119     0.44200
Cu549      Cu  0.42807709  0.98597070  0.93791701     0.42000
Cu550      Cu  0.57610686  0.49949979  0.93587689     0.43900
N551        N  0.57592376  0.55302771  0.99368969    -0.34400
N552        N  0.60661316  0.52415276  0.97517748    -0.28600
C553        C  0.65241396  0.50638049  0.98833256    -0.04700
C554        C  0.64881419  0.52094925  0.01718799     0.07500
C555        C  0.60026181  0.55294821  0.51901654     0.01300
H556        H  0.68410333  0.47986708  0.97829789     0.08900
H557        H  0.58138832  0.56908988  0.53821859     0.08000
N558        N  0.52723746  0.48738602  0.90080495    -0.35800
N559        N  0.47540809  0.48260551  0.90143607    -0.28000
C560        C  0.45746437  0.48230647  0.87432318    -0.03300
C561        C  0.49972961  0.48734995  0.85569913     0.05400
C562        C  0.54321956  0.49021812  0.87333915     0.03400
H563        H  0.41631429  0.98268254  0.86868571     0.08500
H564        H  0.58359450  0.49639992  0.86670249     0.07400
C565        C  0.18519015  0.74852066  0.54473167    -0.02200
C566        C  0.31305336  0.99604126  0.54402672    -0.02200
N567        N  0.10640418  0.73454798  0.61254253    -0.27000
N568        N  0.08082387  0.69597389  0.59550313    -0.34900
C569        C  0.10724667  0.69175274  0.57093221     0.01300
C570        C  0.15068966  0.73273425  0.57131687     0.07400
C571        C  0.14990727  0.75717427  0.59879419    -0.05700
H572        H  0.09250135  0.66712111  0.55256709     0.08000
H573        H  0.17730504  0.79120071  0.60767234     0.09200
Cu574      Cu  0.00252457  0.67419574  0.60043791     0.44200
Cu575      Cu  0.07274893  0.75745993  0.65158216     0.42000
Cu576      Cu  0.92399586  0.74781751  0.65143459     0.43900
N577        N  0.92473260  0.69940143  0.59308033    -0.34400
N578        N  0.89374543  0.72726525  0.61170384    -0.28600
C579        C  0.84831691  0.74626190  0.59846723    -0.04700
C580        C  0.85255167  0.73368815  0.56943872     0.07500
C581        C  0.90125398  0.70205165  0.56746728     0.01300
H582        H  0.81630522  0.77178507  0.60867326     0.08900
H583        H  0.92037737  0.68666831  0.54820444     0.08000
N584        N  0.97169696  0.75514432  0.68718326    -0.35800
N585        N  0.02360884  0.75862122  0.68740093    -0.28000
C586        C  0.03996843  0.75838571  0.71479904    -0.03300
C587        C  0.99660254  0.75414793  0.73266949     0.05400
C588        C  0.95406212  0.75265920  0.71432702     0.03400
H589        H  0.08072383  0.75902736  0.72124531     0.08500
H590        H  0.91305315  0.74981953  0.72005637     0.07400
N591        N  0.89315060  0.76582316  0.97633952    -0.27000
N592        N  0.91877094  0.80465883  0.99328599    -0.34900
C593        C  0.89261760  0.80841536  0.51789823     0.01300
C594        C  0.84924746  0.76740128  0.01753286     0.07400
C595        C  0.84971441  0.74314572  0.99010689    -0.05700
H596        H  0.90810318  0.83204075  0.53628514     0.08000
H597        H  0.82266246  0.70823845  0.98152272     0.09200
Cu598      Cu  0.99709367  0.82804808  0.98915317     0.44200
Cu599      Cu  0.92653941  0.74013147  0.93789280     0.42000
Cu600      Cu  0.07438036  0.75755709  0.93764077     0.43900
N601        N  0.07529387  0.80396669  0.99646436    -0.34400
N602        N  0.10527683  0.77560010  0.97752554    -0.28600
C603        C  0.15040635  0.75422344  0.99040183    -0.04700
C604        C  0.14721834  0.76598795  0.01954779     0.07500
C605        C  0.09971639  0.80053462  0.52189701     0.01300
H606        H  0.18191284  0.72925353  0.97955969     0.08900
H607        H  0.08236653  0.81782851  0.54134646     0.08000
N608        N  0.02691041  0.74429700  0.90224504    -0.35800
N609        N  0.97529270  0.73725565  0.90228608    -0.28000
C610        C  0.95867884  0.73416524  0.87507098    -0.03300
C611        C  0.00156374  0.74019156  0.85695760     0.05400
C612        C  0.04415385  0.74577392  0.87505795     0.03400
H613        H  0.91791786  0.73094262  0.86890435     0.08500
H614        H  0.08490502  0.75121625  0.86916341     0.07400
C615        C  0.81518208  0.75062059  0.54400133    -0.02200
C616        C  0.68544032  0.00308656  0.54291241    -0.02200
C617        C  0.71956638  0.56669662  0.54493985    -0.05200
C618        C  0.76960744  0.56919895  0.53198095    -0.32600
C619        C  0.80117982  0.62593665  0.53220973     0.36600
C620        C  0.78130343  0.68668752  0.54239423    -0.05500
C621        C  0.73135745  0.68415427  0.55546985    -0.32500
C622        C  0.69997610  0.62716677  0.55557269     0.36500
H623        H  0.78541271  0.52638265  0.52160571     0.16900
O624        O  0.85172753  0.62056495  0.52249293    -0.60000
H625        H  0.71562812  0.72700629  0.56585129     0.16900
O626        O  0.65002254  0.63189397  0.56623518    -0.60100
H627        H  0.63119231  0.66467360  0.55312257     0.43900
H628        H  0.86969607  0.58839371  0.53625351     0.43900
C629        C  0.78101958  0.81556449  0.54565695    -0.05200
C630        C  0.73733045  0.82393601  0.52705147    -0.32600
C631        C  0.70513249  0.88140814  0.52610986     0.36600
C632        C  0.71933604  0.93787809  0.54128943    -0.05500
C633        C  0.76289992  0.92935228  0.55995200    -0.32500
C634        C  0.79516458  0.87198820  0.56084677     0.36500
H635        H  0.72661462  0.78403311  0.51354579     0.16900
O636        O  0.65867641  0.87935617  0.51143706    -0.60000
H637        H  0.77355784  0.96911961  0.57353655     0.16900
O638        O  0.84160208  0.87399403  0.57555384    -0.60100
H639        H  0.86296852  0.90828877  0.56502588     0.43900
H640        H  0.63649075  0.84734972  0.02276190     0.43900
C641        C  0.00084827  0.74388324  0.82514287    -0.05200
C642        C  0.96033526  0.71287692  0.81066708    -0.32600
C643        C  0.95780599  0.71632277  0.78065618     0.36600
C644        C  0.99664523  0.75076896  0.76446539    -0.05500
C645        C  0.03691158  0.78205065  0.77893823    -0.32500
C646        C  0.03924673  0.77904661  0.80890984     0.36500
H647        H  0.93067267  0.68499429  0.82260569     0.16900
O648        O  0.91867545  0.68305366  0.76748624    -0.60000
H649        H  0.06649476  0.81005698  0.76698857     0.16900
O650        O  0.07768091  0.81370616  0.82198196    -0.60100
H651        H  0.11052050  0.78758912  0.81936652     0.43900
H652        H  0.88647237  0.71056775  0.76987183     0.43900
C653        C  0.27793402  0.93361230  0.54267661    -0.05200
C654        C  0.29628891  0.87618827  0.52953431    -0.32600
C655        C  0.26687898  0.81761878  0.52947607     0.36600
C656        C  0.21979656  0.81137403  0.54560009    -0.05500
C657        C  0.20127996  0.86877768  0.55865322    -0.32500
C658        C  0.23024509  0.92777884  0.55832110     0.36500
H659        H  0.33427801  0.87558862  0.51933035     0.16900
O660        O  0.28366257  0.76788164  0.51243650    -0.60000
H661        H  0.16341109  0.86897979  0.56902125     0.16900
O662        O  0.21226611  0.97848017  0.57448231    -0.60100
H663        H  0.17973924  0.99580090  0.56484054     0.43900
H664        H  0.31664491  0.74978629  0.02133501     0.43900
C665        C  0.27969126  0.56140704  0.54480741    -0.05200
C666        C  0.29040955  0.61192367  0.56364833    -0.32600
C667        C  0.25990789  0.67065503  0.56379189     0.36600
C668        C  0.21910020  0.68369916  0.54343811    -0.05500
C669        C  0.20891113  0.63367581  0.52424754    -0.32500
C670        C  0.23954868  0.57496041  0.52409100     0.36500
H671        H  0.32379896  0.60841838  0.57778579     0.16900
O672        O  0.27011907  0.71527671  0.58431137    -0.60000
H673        H  0.17603325  0.63775637  0.50974748     0.16900
O674        O  0.23036174  0.53106804  0.50313693    -0.60100
H675        H  0.19619635  0.51029818  0.50804164     0.43900
H676        H  0.30403397  0.73593717  0.57876319     0.43900
C677        C  0.50022229  0.51220124  0.76322076    -0.05200
C678        C  0.46120593  0.97421316  0.77746298    -0.32600
C679        C  0.46014340  0.96611592  0.80745374     0.36600
C680        C  0.49874844  0.49603245  0.82391699    -0.05500
C681        C  0.53715532  0.53510491  0.80974281    -0.32500
C682        C  0.53814932  0.54335503  0.77973515     0.36500
H683        H  0.43197380  0.94902950  0.76533096     0.16900
O684        O  0.42294302  0.92578789  0.82029051    -0.60000
H685        H  0.56637295  0.56015949  0.82194855     0.16900
O686        O  0.57496979  0.58427486  0.76689879    -0.60100
H687        H  0.60874127  0.55930142  0.76903385     0.43900
H688        H  0.38972821  0.95215962  0.81892605     0.43900
loop_ 
_geom_bond_atom_site_label_1 
_geom_bond_atom_site_label_2 
_geom_bond_distance 
_geom_bond_site_symmetry_2 
_ccdc_geom_bond_type 
N1            N2   1.319       .  A
N1            C5   1.353   1_565  A
N1           Cu9   2.084   1_565  S
N2            C3   1.335       .  A
N2         Cu352   2.061       .  S
C3            C4   1.387       .  A
C3            H6   1.081       .  S
C4            C5   1.396   1_565  A
C4          C444   1.537   1_565  S
C5            H7   1.082       .  S
Cu8          N11   2.061       .  S
Cu8         N346   2.061       .  S
Cu9          N19   2.089       .  S
Cu10         N12   2.091       .  S
Cu10         N18   2.095       .  S
N11          N12   1.316       .  A
N11          C15   1.338       .  A
N12          C13   1.354       .  A
C13          C14   1.401       .  A
C13          H16   1.081       .  S
C14          C15   1.392       .  A
C14          C50   1.550       .  S
C15          H17   1.082       .  S
N18         N363   1.327       .  A
N18         C366   1.344       .  A
N19         N362   1.327       .  A
N19          C20   1.348       .  A
C20          C21   1.387       .  A
C20          H23   1.081       .  S
C21          C22   1.385       .  A
C21         C161   1.487       .  S
C22         N362   1.344       .  A
C22         H368   1.081       .  S
H24         C366   1.081       .  S
N25          N26   1.318       .  A
N25          C29   1.353       .  A
N25         Cu33   2.087       .  S
N26         C199   1.338       .  A
N26         Cu32   2.063       .  S
C27         N198   1.338   1_554  A
C27         C200   1.390       .  A
C27          H30   1.082       .  S
C28          C29   1.399       .  A
C28         C199   1.390       .  A
C28         C222   1.545       .  S
C29          H31   1.081       .  S
Cu32        N379   2.065       .  S
Cu33        N387   2.091       .  S
Cu34         N36   2.079   1_565  S
Cu34         N42   2.084       .  S
N35          N36   1.318       .  A
N35         C211   1.335       .  A
N35        Cu376   2.065       .  S
N36          C37   1.353       .  A
C37          C38   1.397       .  A
C37          H40   1.082   1_545  S
C38         C211   1.391       .  A
C38         C616   1.544       .  S
C39         N207   1.335   1_554  A
C39         C210   1.391       .  A
C39          H41   1.081       .  S
N42          N43   1.326       .  A
N42          C46   1.344       .  A
N43          C44   1.346       .  A
N43        Cu377   2.091       .  S
C44          C45   1.386       .  A
C44         H391   1.081       .  S
C45          C46   1.384       .  A
C45         C164   1.485       .  S
C46          H48   1.082       .  S
H47         C388   1.081       .  S
C49          C54   1.543       .  S
C49         C140   1.551       .  S
C49         C152   1.555       .  S
C49         C260   1.545       .  S
C50         C137   1.553       .  S
C50         C200   1.545       .  S
C50         C493   1.555       .  S
N51          N52   1.318       .  A
N51          C55   1.353       .  A
N51         Cu59   2.086       .  S
N52          C53   1.337       .  A
N52         Cu58   2.059       .  S
C53          C54   1.389       .  A
C53          H56   1.082       .  S
C54          C55   1.398       .  A
C55          H57   1.081       .  S
Cu58         N61   2.063   1_455  S
Cu59         N69   2.091       .  S
Cu60         N62   2.073       .  S
Cu60         N68   2.077       .  S
N61          N62   1.317       .  A
N61          C65   1.335       .  A
N62          C63   1.352       .  A
C63          C64   1.396       .  A
C63          H66   1.082       .  S
C64          C65   1.392       .  A
C64          C99   1.542       .  S
C65          H67   1.081       .  S
N68          N69   1.326   1_655  A
N68          C72   1.343       .  A
N69          C70   1.345       .  A
C70          C71   1.386   1_455  A
C70          H73   1.082       .  S
C71          C72   1.383       .  A
C71         C128   1.482       .  S
C72          H74   1.081       .  S
N75          N76   1.319       .  A
N75          C79   1.352       .  A
N75         Cu83   2.074       .  S
N76         C249   1.334       .  A
N76         Cu82   2.064       .  S
C77         N248   1.334   1_554  A
C77         C250   1.388       .  A
C77          H80   1.080       .  S
C78          C79   1.394       .  A
C78         C249   1.388       .  A
C78         C271   1.536       .  S
C79          H81   1.082       .  S
Cu82         N85   2.068   1_655  S
Cu83         N93   2.079       .  S
Cu84         N86   2.073       .  S
Cu84         N92   2.079       .  S
N85          N86   1.316       .  A
N85         C261   1.338       .  A
N86          C87   1.351       .  A
C87          C88   1.396       .  A
C87          H90   1.081       .  S
C88         C261   1.394       .  A
C88         C221   1.545       .  S
C89         N257   1.338   1_554  A
C89         C260   1.394       .  A
C89          H91   1.082       .  S
N92          N93   1.325   1_455  A
N92          C96   1.342       .  A
N93          C94   1.344       .  A
C94          C95   1.385   1_655  A
C94          H97   1.082       .  S
C95          C96   1.385       .  A
C95         C125   1.483       .  S
C96          H98   1.080       .  S
C99         C104   1.561       .  S
C99         C113   1.562       .  S
C99         C250   1.536       .  S
C100        C116   1.562       .  S
C100        C348   1.537       .  S
C100        C554   1.544       .  S
C100        C445   1.561       .  S
C101        C102   1.412       .  A
C101        C106   1.419       .  A
C101        C444   1.561       .  S
C102        C103   1.403       .  A
C102        H107   1.082       .  S
C103        C104   1.419       .  A
C103        O108   1.371       .  S
C104        C105   1.413       .  A
C105        C106   1.404       .  A
C105        H109   1.082       .  S
C106        O110   1.371       .  S
O108        H112   0.992       .  S
O110        H111   0.992       .  S
C113        C114   1.414       .  A
C113        C118   1.418       .  A
C114        C115   1.404       .  A
C114        H119   1.083       .  S
C115        C116   1.419       .  A
C115        O120   1.370       .  S
C116        C117   1.414       .  A
C117        C118   1.403       .  A
C117        H121   1.083       .  S
C118        O122   1.370       .  S
O120        H296   0.992       .  S
O122        H123   0.992       .  S
H124        O292   0.992       .  S
C125        C126   1.405   1_455  A
C125        C130   1.411       .  A
C126        C127   1.400       .  A
C126        H131   1.083       .  S
C127        C128   1.411       .  A
C127        O132   1.371       .  S
C128        C129   1.402   1_655  A
C129        C130   1.398       .  A
C129        H133   1.083       .  S
C130        O134   1.371       .  S
O132        H136   0.992       .  S
O134        H135   0.992       .  S
C137        C138   1.408       .  A
C137        C142   1.421       .  A
C138        C139   1.402       .  A
C138        H143   1.080       .  S
C139        C140   1.420       .  A
C139        O144   1.373       .  S
C140        C141   1.407       .  A
C141        C142   1.403       .  A
C141        H145   1.080       .  S
C142        O146   1.373       .  S
O144        H320   0.992       .  S
O146        H147   0.993       .  S
H148        O316   0.992       .  S
C149        C150   1.407       .  A
C149        C154   1.421       .  A
C149        C394   1.555   1_545  S
C150        C151   1.402       .  A
C150        H155   1.076       .  S
C151        C152   1.420       .  A
C151        O156   1.373       .  S
C152        C153   1.408       .  A
C153        C154   1.404       .  A
C153        H157   1.076       .  S
C154        O158   1.373       .  S
O156        H160   0.992       .  S
O158        H159   0.992       .  S
C161        C166   1.410       .  A
C161        C506   1.406   1_545  A
C162        C163   1.401       .  A
C162        C505   1.406       .  A
C162        H167   1.083       .  S
C163        C508   1.409       .  A
C163        O168   1.372       .  S
C164        C165   1.406   1_565  A
C164        C507   1.409       .  A
C165        C166   1.402       .  A
C165        H169   1.083       .  S
C166        O170   1.372       .  S
O168        H172   0.992       .  S
O170        H171   0.992       .  S
N173        N174   1.319       .  A
N173        C177   1.353   1_565  A
N173       Cu181   2.084   1_565  S
N174        C175   1.335       .  A
N174       Cu524   2.061       .  S
C175        C176   1.387       .  A
C175        H178   1.081       .  S
C176        C177   1.396   1_565  A
C176        C616   1.537   1_565  S
C177        H179   1.082       .  S
Cu180       N518   2.061       .  S
Cu180       N183   2.061       .  S
Cu181       N191   2.089       .  S
Cu182       N184   2.091       .  S
Cu182       N190   2.095       .  S
N183        N184   1.316       .  A
N183        C187   1.338       .  A
N184        C185   1.354       .  A
C185        C186   1.401       .  A
C185        H188   1.081       .  S
C186        C187   1.392       .  A
C186        C222   1.550       .  S
C187        H189   1.082       .  S
N190        N535   1.327       .  A
N190        C538   1.344       .  A
N191        N534   1.327       .  A
N191        C192   1.348       .  A
C192        C193   1.387       .  A
C192        H195   1.081       .  S
C193        C194   1.385       .  A
C193        C333   1.487       .  S
C194        N534   1.344       .  A
C194        H540   1.081       .  S
H196        C538   1.081       .  S
N197        N198   1.318       .  A
N197        C201   1.353       .  A
N197       Cu205   2.087       .  S
N198       Cu204   2.063       .  S
C199        H202   1.082       .  S
C200        C201   1.399   1_554  A
C201        H203   1.081       .  S
Cu204       N551   2.065       .  S
Cu205       N559   2.091       .  S
Cu206       N208   2.079   1_565  S
Cu206       N214   2.084       .  S
N207        N208   1.318       .  A
N207       Cu548   2.065       .  S
N208        C209   1.353       .  A
C209        C210   1.397   1_556  A
C209        H212   1.082   1_545  S
C210        C444   1.544       .  S
C211        H213   1.081       .  S
N214        N215   1.326       .  A
N214        C218   1.344       .  A
N215        C216   1.346       .  A
N215       Cu549   2.091       .  S
C216        C217   1.386       .  A
C216        H563   1.081       .  S
C217        C218   1.384       .  A
C217        C336   1.485       .  S
C218        H220   1.082       .  S
H219        C560   1.081       .  S
C221        C226   1.543       .  S
C221        C312   1.551       .  S
C221        C324   1.555       .  S
C222        C309   1.553       .  S
C222        C665   1.555       .  S
N223        N224   1.318       .  A
N223        C227   1.353       .  A
N223       Cu231   2.086       .  S
N224        C225   1.337       .  A
N224       Cu230   2.059       .  S
C225        C226   1.389       .  A
C225        H228   1.082       .  S
C226        C227   1.398       .  A
C227        H229   1.081       .  S
Cu230       N233   2.063   1_455  S
Cu231       N241   2.091       .  S
Cu232       N234   2.073       .  S
Cu232       N240   2.077       .  S
N233        N234   1.317       .  A
N233        C237   1.335       .  A
N234        C235   1.352       .  A
C235        C236   1.396       .  A
C235        H238   1.082       .  S
C236        C237   1.392       .  A
C236        C271   1.542       .  S
C237        H239   1.081       .  S
N240        N241   1.326   1_655  A
N240        C244   1.343       .  A
N241        C242   1.345       .  A
C242        C243   1.386   1_455  A
C242        H245   1.082       .  S
C243        C244   1.383       .  A
C243        C300   1.482       .  S
C244        H246   1.081       .  S
N247        N248   1.319       .  A
N247        C251   1.352       .  A
N247       Cu255   2.074       .  S
N248       Cu254   2.064       .  S
C249        H252   1.080       .  S
C250        C251   1.394   1_554  A
C251        H253   1.082       .  S
Cu254       N257   2.068   1_655  S
Cu255       N265   2.079       .  S
Cu256       N258   2.073       .  S
Cu256       N264   2.079       .  S
N257        N258   1.316       .  A
N258        C259   1.351       .  A
C259        C260   1.396   1_556  A
C259        H262   1.081       .  S
C261        H263   1.082       .  S
N264        N265   1.325   1_455  A
N264        C268   1.342       .  A
N265        C266   1.344       .  A
C266        C267   1.385   1_655  A
C266        H269   1.082       .  S
C267        C268   1.385       .  A
C267        C297   1.483       .  S
C268        H270   1.080       .  S
C271        C276   1.561       .  S
C271        C285   1.562       .  S
C272        C520   1.537       .  S
C272        C382   1.544       .  S
C272        C617   1.561       .  S
C272        C288   1.562       .  S
C273        C274   1.412       .  A
C273        C278   1.419       .  A
C273        C616   1.561       .  S
C274        C275   1.403       .  A
C274        H279   1.082       .  S
C275        C276   1.419       .  A
C275        O280   1.371       .  S
C276        C277   1.413       .  A
C277        C278   1.404       .  A
C277        H281   1.082       .  S
C278        O282   1.371       .  S
O280        H284   0.992       .  S
O282        H283   0.992       .  S
C285        C286   1.414       .  A
C285        C290   1.418       .  A
C286        C287   1.404       .  A
C286        H291   1.083       .  S
C287        C288   1.419       .  A
C287        O292   1.370       .  S
C288        C289   1.414       .  A
C289        C290   1.403       .  A
C289        H293   1.083       .  S
C290        O294   1.370       .  S
O294        H295   0.992       .  S
C297        C298   1.405   1_455  A
C297        C302   1.411       .  A
C298        C299   1.400       .  A
C298        H303   1.083       .  S
C299        C300   1.411       .  A
C299        O304   1.371       .  S
C300        C301   1.402   1_655  A
C301        C302   1.398       .  A
C301        H305   1.083       .  S
C302        O306   1.371       .  S
O304        H308   0.992       .  S
O306        H307   0.992       .  S
C309        C310   1.408       .  A
C309        C314   1.421       .  A
C310        C311   1.402       .  A
C310        H315   1.080       .  S
C311        C312   1.420       .  A
C311        O316   1.373       .  S
C312        C313   1.407       .  A
C313        C314   1.403       .  A
C313        H317   1.080       .  S
C314        O318   1.373       .  S
O318        H319   0.993       .  S
C321        C322   1.407       .  A
C321        C326   1.421       .  A
C321        C566   1.555   1_545  S
C322        C323   1.402       .  A
C322        H327   1.076       .  S
C323        C324   1.420       .  A
C323        O328   1.373       .  S
C324        C325   1.408       .  A
C325        C326   1.404       .  A
C325        H329   1.076       .  S
C326        O330   1.373       .  S
O328        H332   0.992       .  S
O330        H331   0.992       .  S
C333        C678   1.406   1_545  A
C333        C338   1.410       .  A
C334        C677   1.406       .  A
C334        C335   1.401       .  A
C334        H339   1.083       .  S
C335        C680   1.409       .  A
C335        O340   1.372       .  S
C336        C679   1.409       .  A
C336        C337   1.406   1_565  A
C337        C338   1.402       .  A
C337        H341   1.083       .  S
C338        O342   1.372       .  S
O340        H344   0.992       .  S
O342        H343   0.992       .  S
N345        N346   1.319       .  A
N345        C349   1.353       .  A
N345       Cu353   2.084       .  S
N346        C347   1.335       .  A
C347        C348   1.387       .  A
C347        H350   1.081       .  S
C348        C349   1.396       .  A
C349        H351   1.082       .  S
Cu352       N355   2.061       .  S
Cu353       N363   2.089       .  S
Cu354       N356   2.091       .  S
Cu354       N362   2.095   1_565  S
N355        N356   1.316       .  A
N355        C359   1.338       .  A
N356        C357   1.354       .  A
C357        C358   1.401       .  A
C357        H360   1.081   1_565  S
C358        C359   1.392       .  A
C358        C394   1.550       .  S
C359        H361   1.082       .  S
N363        C364   1.348       .  A
C364        C365   1.387       .  A
C364        H367   1.081       .  S
C365        C366   1.385       .  A
C365        C505   1.487       .  S
N369        N370   1.318       .  A
N369        C373   1.353   1_545  A
N369       Cu377   2.087   1_545  S
N370        C543   1.338       .  A
N370       Cu376   2.063       .  S
C371        N542   1.338   1_554  A
C371        C544   1.390       .  A
C371        H374   1.082       .  S
C372        C543   1.390       .  A
C372        C373   1.399   1_545  A
C372        C566   1.545   1_545  S
C373        H375   1.081       .  S
Cu378       N380   2.079       .  S
Cu378       N386   2.084       .  S
N379        N380   1.318       .  A
N379        C555   1.335       .  A
N380        C381   1.353       .  A
C381        C382   1.397       .  A
C381        H384   1.082       .  S
C382        C555   1.391       .  A
C383        N551   1.335   1_554  A
C383        C554   1.391       .  A
C383        H385   1.081       .  S
N386        N387   1.326       .  A
N386        C390   1.344       .  A
N387        C388   1.346       .  A
C388        C389   1.386       .  A
C389        C390   1.384       .  A
C389        C508   1.485       .  S
C390        H392   1.082       .  S
C393        C398   1.543       .  S
C393        C604   1.545       .  S
C393        C484   1.551       .  S
C393        C496   1.555       .  S
C394        C544   1.545   1_565  S
C394        C481   1.553       .  S
N395        N396   1.318       .  A
N395        C399   1.353       .  A
N395       Cu403   2.086       .  S
N396        C397   1.337       .  A
N396       Cu402   2.059       .  S
C397        C398   1.389       .  A
C397        H400   1.082       .  S
C398        C399   1.398       .  A
C399        H401   1.081       .  S
Cu402       N405   2.064   1_455  S
Cu403       N413   2.091       .  S
Cu404       N406   2.073       .  S
Cu404       N412   2.077       .  S
N405        N406   1.317       .  A
N405        C409   1.335       .  A
N406        C407   1.352       .  A
C407        C408   1.396       .  A
C407        H410   1.082       .  S
C408        C409   1.392       .  A
C408        C443   1.542       .  S
C409        H411   1.081       .  S
N412        N413   1.326   1_655  A
N412        C416   1.343       .  A
N413        C414   1.345       .  A
C414        C415   1.386   1_455  A
C414        H417   1.082       .  S
C415        C416   1.383       .  A
C415        C472   1.482       .  S
C416        H418   1.081       .  S
N419        N420   1.319       .  A
N419        C423   1.352       .  A
N419       Cu427   2.074       .  S
N420        C593   1.334       .  A
N420       Cu426   2.064       .  S
C421        N592   1.334   1_554  A
C421        C594   1.388       .  A
C421        H424   1.080       .  S
C422        C593   1.388       .  A
C422        C423   1.394       .  A
C422        C615   1.536       .  S
C423        H425   1.082       .  S
Cu426       N429   2.068   1_655  S
Cu427       N437   2.079       .  S
Cu428       N430   2.073       .  S
Cu428       N436   2.079       .  S
N429        N430   1.316       .  A
N429        C605   1.338       .  A
N430        C431   1.351       .  A
C431        C432   1.396       .  A
C431        H434   1.081       .  S
C432        C605   1.394       .  A
C432        C565   1.545       .  S
C433        N601   1.338   1_554  A
C433        C604   1.394       .  A
C433        H435   1.082       .  S
N436        N437   1.325   1_455  A
N436        C440   1.342       .  A
N437        C438   1.344       .  A
C438        C439   1.385   1_655  A
C438        H441   1.082       .  S
C439        C440   1.385       .  A
C439        C469   1.483       .  S
C440        H442   1.080       .  S
C443        C594   1.536       .  S
C443        C448   1.561       .  S
C443        C457   1.562       .  S
C444        C460   1.562   1_545  S
C445        C446   1.412       .  A
C445        C450   1.419       .  A
C446        C447   1.403       .  A
C446        H451   1.082       .  S
C447        C448   1.419       .  A
C447        O452   1.371       .  S
C448        C449   1.413       .  A
C449        C450   1.404       .  A
C449        H453   1.082       .  S
C450        O454   1.371       .  S
O452        H456   0.992       .  S
O454        H455   0.992       .  S
C457        C458   1.414       .  A
C457        C462   1.418       .  A
C458        C459   1.404       .  A
C458        H463   1.083       .  S
C459        C460   1.419       .  A
C459        O464   1.370       .  S
C460        C461   1.414       .  A
C461        C462   1.403       .  A
C461        H465   1.083       .  S
C462        O466   1.370       .  S
O464        H640   0.992       .  S
O466        H467   0.992       .  S
H468        O636   0.992       .  S
C469        C470   1.405   1_455  A
C469        C474   1.411       .  A
C470        C471   1.400       .  A
C470        H475   1.083       .  S
C471        C472   1.411       .  A
C471        O476   1.371       .  S
C472        C473   1.402   1_655  A
C473        C474   1.398       .  A
C473        H477   1.083       .  S
C474        O478   1.371       .  S
O476        H480   0.992       .  S
O478        H479   0.992       .  S
C481        C482   1.408       .  A
C481        C486   1.421       .  A
C482        C483   1.402       .  A
C482        H487   1.080       .  S
C483        C484   1.420       .  A
C483        O488   1.373       .  S
C484        C485   1.407       .  A
C485        C486   1.403       .  A
C485        H489   1.080       .  S
C486        O490   1.373       .  S
O488        H664   0.992       .  S
O490        H491   0.993       .  S
H492        O660   0.992       .  S
C493        C494   1.407       .  A
C493        C498   1.421       .  A
C494        C495   1.402       .  A
C494        H499   1.076       .  S
C495        C496   1.420       .  A
C495        O500   1.373       .  S
C496        C497   1.408       .  A
C497        C498   1.404       .  A
C497        H501   1.076       .  S
C498        O502   1.373       .  S
O500        H504   0.992       .  S
O502        H503   0.992       .  S
C505        C510   1.410       .  A
C506        C507   1.401       .  A
C506        H511   1.083       .  S
C507        O512   1.372       .  S
C508        C509   1.406       .  A
C509        C510   1.402       .  A
C509        H513   1.083       .  S
C510        O514   1.372       .  S
O512        H516   0.992       .  S
O514        H515   0.992       .  S
N517        N518   1.319       .  A
N517        C521   1.353       .  A
N517       Cu525   2.084       .  S
N518        C519   1.335       .  A
C519        C520   1.387       .  A
C519        H522   1.081       .  S
C520        C521   1.396       .  A
C521        H523   1.082       .  S
Cu524       N527   2.061       .  S
Cu525       N535   2.089       .  S
Cu526       N528   2.091       .  S
Cu526       N534   2.095   1_565  S
N527        N528   1.316       .  A
N527        C531   1.338       .  A
N528        C529   1.354       .  A
C529        C530   1.401       .  A
C529        H532   1.081   1_565  S
C530        C531   1.392       .  A
C530        C566   1.550       .  S
C531        H533   1.082       .  S
N535        C536   1.348       .  A
C536        C537   1.387       .  A
C536        H539   1.081       .  S
C537        C538   1.385       .  A
C537        C677   1.487       .  S
N541        N542   1.318       .  A
N541        C545   1.353   1_545  A
N541       Cu549   2.087   1_545  S
N542       Cu548   2.063       .  S
C543        H546   1.082       .  S
C544        C545   1.399   1_544  A
C545        H547   1.081       .  S
Cu550       N552   2.079       .  S
Cu550       N558   2.084       .  S
N551        N552   1.318       .  A
N552        C553   1.353       .  A
C553        C554   1.397   1_556  A
C553        H556   1.082       .  S
C555        H557   1.081       .  S
N558        N559   1.326       .  A
N558        C562   1.344       .  A
N559        C560   1.346       .  A
C560        C561   1.386       .  A
C561        C562   1.384       .  A
C561        C680   1.485       .  S
C562        H564   1.082       .  S
C565        C570   1.543       .  S
C565        C656   1.551       .  S
C565        C668   1.555       .  S
C566        C653   1.553       .  S
N567        N568   1.318       .  A
N567        C571   1.353       .  A
N567       Cu575   2.086       .  S
N568        C569   1.337       .  A
N568       Cu574   2.059       .  S
C569        C570   1.389       .  A
C569        H572   1.082       .  S
C570        C571   1.398       .  A
C571        H573   1.081       .  S
Cu574       N577   2.064   1_455  S
Cu575       N585   2.091       .  S
Cu576       N578   2.073       .  S
Cu576       N584   2.077       .  S
N577        N578   1.317       .  A
N577        C581   1.335       .  A
N578        C579   1.352       .  A
C579        C580   1.396       .  A
C579        H582   1.082       .  S
C580        C581   1.392       .  A
C580        C615   1.542       .  S
C581        H583   1.081       .  S
N584        N585   1.326   1_655  A
N584        C588   1.343       .  A
N585        C586   1.345       .  A
C586        C587   1.386   1_455  A
C586        H589   1.082       .  S
C587        C588   1.383       .  A
C587        C644   1.482       .  S
C588        H590   1.081       .  S
N591        N592   1.319       .  A
N591        C595   1.352       .  A
N591       Cu599   2.074       .  S
N592       Cu598   2.064       .  S
C593        H596   1.080       .  S
C594        C595   1.394   1_554  A
C595        H597   1.082       .  S
Cu598       N601   2.068   1_655  S
Cu599       N609   2.079       .  S
Cu600       N602   2.073       .  S
Cu600       N608   2.079       .  S
N601        N602   1.316       .  A
N602        C603   1.351       .  A
C603        C604   1.396   1_556  A
C603        H606   1.081       .  S
C605        H607   1.082       .  S
N608        N609   1.325   1_455  A
N608        C612   1.342       .  A
N609        C610   1.344       .  A
C610        C611   1.385   1_655  A
C610        H613   1.082       .  S
C611        C612   1.385       .  A
C611        C641   1.483       .  S
C612        H614   1.080       .  S
C615        C620   1.561       .  S
C615        C629   1.562       .  S
C616        C632   1.562   1_545  S
C617        C618   1.412       .  A
C617        C622   1.419       .  A
C618        C619   1.403       .  A
C618        H623   1.082       .  S
C619        C620   1.419       .  A
C619        O624   1.371       .  S
C620        C621   1.413       .  A
C621        C622   1.404       .  A
C621        H625   1.082       .  S
C622        O626   1.371       .  S
O624        H628   0.992       .  S
O626        H627   0.992       .  S
C629        C630   1.414       .  A
C629        C634   1.418       .  A
C630        C631   1.404       .  A
C630        H635   1.083       .  S
C631        C632   1.419       .  A
C631        O636   1.370       .  S
C632        C633   1.414       .  A
C633        C634   1.403       .  A
C633        H637   1.083       .  S
C634        O638   1.370       .  S
O638        H639   0.992       .  S
C641        C642   1.405   1_455  A
C641        C646   1.411       .  A
C642        C643   1.400       .  A
C642        H647   1.083       .  S
C643        C644   1.411       .  A
C643        O648   1.371       .  S
C644        C645   1.402   1_655  A
C645        C646   1.398       .  A
C645        H649   1.083       .  S
C646        O650   1.371       .  S
O648        H652   0.992       .  S
O650        H651   0.992       .  S
C653        C654   1.408       .  A
C653        C658   1.421       .  A
C654        C655   1.402       .  A
C654        H659   1.080       .  S
C655        C656   1.420       .  A
C655        O660   1.373       .  S
C656        C657   1.407       .  A
C657        C658   1.403       .  A
C657        H661   1.080       .  S
C658        O662   1.373       .  S
O662        H663   0.993       .  S
C665        C666   1.407       .  A
C665        C670   1.421       .  A
C666        C667   1.402       .  A
C666        H671   1.076       .  S
C667        C668   1.420       .  A
C667        O672   1.373       .  S
C668        C669   1.408       .  A
C669        C670   1.404       .  A
C669        H673   1.076       .  S
C670        O674   1.373       .  S
O672        H676   0.992       .  S
O674        H675   0.992       .  S
C677        C682   1.410       .  A
C678        C679   1.401       .  A
C678        H683   1.083       .  S
C679        O684   1.372       .  S
C680        C681   1.406       .  A
C681        C682   1.402       .  A
C681        H685   1.083       .  S
C682        O686   1.372       .  S
O684        H688   0.992       .  S
O686        H687   0.992       .  S
