geometry optimzed in LAMMPS
_audit_creation_date              2020-11-30 
_audit_creation_method            'lammps2cif' 
_symmetry_space_group_name_H-M    'P1' 
_symmetry_Int_Tables_number       1 
_symmetry_cell_setting            triclinic 
loop_ 
_symmetry_equiv_pos_as_xyz 
  x,y,z 
_cell_length_a                    49.96441623 
_cell_length_b                    50.18975514561375 
_cell_length_c                    46.597307785801625 
_cell_angle_alpha                 89.7987726573868 
_cell_angle_beta                  90.33990431385492 
_cell_angle_gamma                 90.3069928056779 
loop_ 
_atom_site_label 
_atom_site_type_symbol 
_atom_site_fract_x 
_atom_site_fract_y 
_atom_site_fract_z 
_atom_site_charge 
C1          C  0.61337528  0.02210380  0.00368091     0.79700
N2          N  0.62657679  0.02110096  0.02929445    -0.78600
C3          C  0.65313703  0.01529512  0.03031139     0.82200
N4          N  0.66643514  0.01099656  0.50544518    -0.78500
C5          C  0.65356916  0.01213467  0.47976220     0.82300
N6          N  0.62699382  0.01754066  0.47906967    -0.80200
In7        In  0.79640683  0.01433767  0.25599302     1.36900
C8          C  0.82669108  0.05793717  0.25405976     0.77100
O9          O  0.76466476  0.99403126  0.28242809    -0.61300
O10         O  0.77745344  0.03280876  0.29431152    -0.52300
C11         C  0.76262746  0.01182472  0.21199002     0.69800
O12         O  0.77714359  0.99245999  0.21939468    -0.47100
C13         C  0.83428981  0.97708836  0.25683043     0.74500
O14         O  0.81314450  0.04991075  0.23286712    -0.59000
O15         O  0.82053914  0.98257244  0.27859640    -0.49100
O16         O  0.82463407  0.04363784  0.27622058    -0.55400
C17         C  0.76246400  0.01319299  0.29966723     0.84700
O18         O  0.76525253  0.03229329  0.22739020    -0.57300
O19         O  0.82828747  0.99036164  0.23476238    -0.60600
In20       In  0.22892177  0.04818180  0.24656102     1.36900
C21         C  0.19189237  0.08615052  0.24541343     0.77100
O22         O  0.24568518  0.07027664  0.20905323    -0.61300
O23         O  0.26038360  0.03146795  0.21755755    -0.52300
C24         C  0.26272479  0.04936962  0.29106367     0.69800
O25         O  0.26029027  0.06857181  0.27376829    -0.47100
C26         C  0.19812579  0.00492331  0.24685712     0.74500
O27         O  0.20772907  0.08293284  0.26630291    -0.59000
O28         O  0.21340180  0.01061605  0.22625489    -0.49100
O29         O  0.19501852  0.06986395  0.22521888    -0.55400
C30         C  0.26117258  0.05184946  0.20167372     0.84700
O31         O  0.24801858  0.02960593  0.28540217    -0.57300
O32         O  0.19878706  0.02134477  0.26726196    -0.60600
C33         C  0.41401407  0.05542970  0.99813385     0.79700
N34         N  0.40022579  0.05694617  0.02318363    -0.78600
C35         C  0.37313632  0.05921799  0.02301643     0.82200
N36         N  0.35986239  0.05957956  0.99755022    -0.78500
C37         C  0.37322049  0.05794225  0.47236457     0.82300
N38         N  0.40034289  0.05596028  0.47278100    -0.80200
C39         C  0.02690689  0.62951893  0.50163368     0.79700
N40         N  0.02514939  0.64343997  0.02661527    -0.78600
C41         C  0.02703670  0.67049613  0.02652428     0.82200
N42         N  0.03054580  0.68344813  0.50123271    -0.78500
C43         C  0.03221363  0.66999571  0.47613514     0.82300
N44         N  0.03039386  0.64298255  0.47647879    -0.80200
In45       In  0.02984032  0.81452134  0.25104005     1.36900
C46         C  0.98714319  0.84639832  0.25293621     0.77100
O47         O  0.01362397  0.79734880  0.29176005    -0.61300
O48         O  0.05022587  0.78190261  0.27661154    -0.52300
C49         C  0.02934592  0.78147585  0.20646083     0.69800
O50         O  0.01020034  0.78294514  0.22391102    -0.47100
C51         C  0.06943963  0.85023595  0.24895947     0.74500
O52         O  0.99140996  0.83081405  0.23231351    -0.59000
O53         O  0.06525000  0.83567202  0.27057060    -0.49100
O54         O  0.00472006  0.84562724  0.27238895    -0.55400
C55         C  0.03254906  0.78128664  0.29578978     0.84700
O56         O  0.04877782  0.79676654  0.21206150    -0.57300
O57         O  0.05363419  0.84617448  0.22825024    -0.60600
C58         C  0.99934860  0.42962972  0.49679807     0.79700
N59         N  0.99615778  0.41595648  0.02177984    -0.78600
C60         C  0.99096914  0.38938575  0.02160980     0.82200
N61         N  0.98939667  0.37645502  0.49617361    -0.78500
C62         C  0.99260714  0.38969038  0.47099421     0.82300
N63         N  0.99743747  0.41639751  0.47138648    -0.80200
In64       In  0.99593944  0.24683756  0.24613916     1.36900
C65         C  0.03970857  0.21682482  0.24577069     0.77100
O66         O  0.01509608  0.26544345  0.28486422    -0.61300
O67         O  0.97610010  0.27799780  0.27329875    -0.52300
C68         C  0.99064742  0.27872965  0.20098258     0.69800
O69         O  0.01078941  0.27944427  0.21738954    -0.47100
C70         C  0.95754098  0.21008811  0.24690659     0.74500
O71         O  0.02325285  0.21671357  0.26618229    -0.59000
O72         O  0.96031826  0.22717033  0.26649451    -0.49100
O73         O  0.03385882  0.23255006  0.22553298    -0.55400
C74         C  0.99550108  0.28015544  0.29053888     0.84700
O75         O  0.97328202  0.26157922  0.20767145    -0.57300
O76         O  0.97449408  0.21184897  0.22707766    -0.60600
C77         C  0.98978865  0.37332407  0.39145509    -0.11300
C78         C  0.99191658  0.34543144  0.39206237     0.05800
C79         C  0.99327741  0.33227396  0.41862422    -0.10100
C80         C  0.99301007  0.34669383  0.44412575    -0.11700
C81         C  0.99166836  0.37468321  0.44368115    -0.01500
C82         C  0.98987972  0.38786778  0.41706411    -0.10600
C83         C  0.99345216  0.32987036  0.36522596     0.05800
H84         H  0.99458802  0.31075455  0.41963474     0.07800
H85         H  0.99435140  0.33584299  0.46421115     0.11200
H86         H  0.98865710  0.40937875  0.41602164     0.11500
H87         H  0.98874721  0.38387673  0.37116715     0.07800
C88         C  0.97475345  0.33362185  0.34297818    -0.11300
C89         C  0.97547344  0.31760205  0.31845978    -0.10600
C90         C  0.99519724  0.29793707  0.31565835    -0.01500
C91         C  0.01434388  0.29479196  0.33753645    -0.11700
C92         C  0.01336285  0.31046411  0.36216703    -0.10100
H93         H  0.95917102  0.34842548  0.34493570     0.07800
H94         H  0.96054923  0.32045635  0.30181198     0.11500
H95         H  0.02977275  0.27979222  0.33589182     0.11200
H96         H  0.02815603  0.30740362  0.37891464     0.07800
C97         C  0.98866451  0.37268474  0.10089703    -0.11300
C98         C  0.98301278  0.34524135  0.10033255     0.05800
C99         C  0.97871642  0.33272125  0.07380831    -0.10100
C100        C  0.98092534  0.34716404  0.04829789    -0.11700
C101        C  0.98739719  0.37446944  0.04876731    -0.01500
C102        C  0.99083056  0.38716998  0.07537412    -0.10600
C103        C  0.98357919  0.32929687  0.12708721     0.05800
H104        H  0.97462899  0.31154173  0.07271598     0.07800
H105        H  0.97801201  0.33675979  0.02818741     0.11200
H106        H  0.99563233  0.40819520  0.07651519     0.11500
H107        H  0.99173613  0.38288223  0.12110650     0.07800
C108        C  0.00407547  0.33348164  0.14735207    -0.11300
C109        C  0.00617417  0.31716113  0.17150837    -0.10600
C110        C  0.98772737  0.29643284  0.17595455    -0.01500
C111        C  0.96680193  0.29257466  0.15612168    -0.11700
C112        C  0.96478731  0.30882928  0.13180916    -0.10100
H113        H  0.01905366  0.34885243  0.14405598     0.07800
H114        H  0.02242601  0.32057214  0.18653361     0.11500
H115        H  0.95225928  0.27673405  0.15916444     0.11200
H116        H  0.94867350  0.30532351  0.11663390     0.07800
C117        C  0.02680611  0.55784062  0.47592874    -0.11300
C118        C  0.01851667  0.54378276  0.50050973     0.05800
C119        C  0.01397075  0.55819120  0.02588788    -0.10100
C120        C  0.01714741  0.58592547  0.02646313    -0.11700
C121        C  0.02470506  0.59997974  0.50161218    -0.01500
C122        C  0.02972178  0.58553876  0.47643049    -0.10600
C123        C  0.01412137  0.51435955  0.49942424     0.05800
H124        H  0.00726978  0.54817152  0.04516751     0.07800
H125        H  0.01312824  0.59638449  0.04624773     0.11200
H126        H  0.03589536  0.59562329  0.45697089     0.11500
H127        H  0.03116184  0.54745093  0.45620503     0.07800
C128        C  0.00399784  0.50219503  0.47438248    -0.11300
C129        C  0.99962498  0.47466837  0.47334790    -0.10600
C130        C  0.00483017  0.45865794  0.49747150    -0.01500
C131        C  0.01493657  0.47071037  0.02251090    -0.11700
C132        C  0.01969620  0.49818044  0.02341990    -0.10100
H133        H  0.99892449  0.51398653  0.45566420     0.07800
H134        H  0.99161080  0.46601012  0.45383108     0.11500
H135        H  0.01940252  0.45886423  0.04139648     0.11200
H136        H  0.02797146  0.50666751  0.04287715     0.07800
C137        C  0.03607069  0.68690792  0.39651055    -0.11300
C138        C  0.03729838  0.71488831  0.39730734     0.05800
C139        C  0.03851034  0.72765248  0.42402663    -0.10100
C140        C  0.03750298  0.71295537  0.44941666    -0.11700
C141        C  0.03521414  0.68502657  0.44883150    -0.01500
C142        C  0.03495928  0.67208591  0.42206895    -0.10600
C143        C  0.03593584  0.73112303  0.37066932     0.05800
H144        H  0.03996021  0.74915385  0.42528626     0.07800
H145        H  0.03807663  0.72365429  0.46955341     0.11200
H146        H  0.03331738  0.65060349  0.42084236     0.11500
H147        H  0.03504567  0.67658373  0.37616160     0.07800
C148        C  0.05156086  0.72505578  0.34658124    -0.11300
C149        C  0.05069778  0.74139104  0.32209834    -0.10600
C150        C  0.03380103  0.76369098  0.32120417    -0.01500
C151        C  0.01788304  0.76937613  0.34507239    -0.11700
C152        C  0.01902573  0.75337817  0.36954727    -0.10100
H153        H  0.06482264  0.70804827  0.34694117     0.07800
H154        H  0.06309642  0.73656425  0.30388995     0.11500
H155        H  0.00470628  0.78645746  0.34496807     0.11200
H156        H  0.00650595  0.75833373  0.38762080     0.07800
C157        C  0.03211357  0.72820972  0.07851288    -0.11300
C158        C  0.02597655  0.71599299  0.10478448     0.05800
C159        C  0.01913323  0.68880438  0.10519934    -0.10100
C160        C  0.01926255  0.67389867  0.07981687    -0.12100
C161        C  0.02588404  0.68604972  0.05353008    -0.01500
C162        C  0.03191442  0.71348114  0.05318431    -0.10600
C163        C  0.02723434  0.73169293  0.13161101     0.05800
H164        H  0.01432524  0.67897465  0.12525923     0.07800
H165        H  0.01435505  0.65288610  0.08081576     0.11200
H166        H  0.03695100  0.72360824  0.03336202     0.11500
H167        H  0.03707338  0.74922784  0.07759260     0.07800
C168        C  0.04966333  0.74780644  0.13750194    -0.11300
C169        C  0.05055312  0.76355885  0.16214795    -0.10600
C170        C  0.02892971  0.76369148  0.18125976    -0.01500
C171        C  0.00665923  0.74725961  0.17561781    -0.11700
C172        C  0.00588057  0.73129421  0.15105478    -0.10100
H173        H  0.06649124  0.74821706  0.12297624     0.07800
H174        H  0.06803493  0.77593083  0.16603367     0.11500
H175        H  0.98972502  0.74699912  0.18998779     0.11200
H176        H  0.98831581  0.71913307  0.14685785     0.07800
C177        C  0.13474171  0.12970631  0.22010441    -0.11300
C178        C  0.13056007  0.14590896  0.24420553     0.05800
C179        C  0.14741719  0.14289741  0.26825758    -0.10100
C180        C  0.16757937  0.12371640  0.26848446    -0.11700
C181        C  0.17129131  0.10711885  0.24468583    -0.01500
C182        C  0.15488535  0.11046780  0.22036654    -0.10600
C183        C  0.10799307  0.16505177  0.24477711     0.05800
H184        H  0.14496689  0.15535403  0.28697037     0.07800
H185        H  0.18006090  0.12167038  0.28742957     0.11200
H186        H  0.15738388  0.09797421  0.20167903     0.11500
H187        H  0.12193903  0.13135787  0.20136417     0.07800
C188        C  0.10131296  0.18028617  0.22040005    -0.11300
C189        C  0.07938024  0.19750734  0.22082822    -0.10600
C190        C  0.06361884  0.19966337  0.24556200    -0.01500
C191        C  0.07046609  0.18470948  0.27000416    -0.11700
C192        C  0.09243244  0.16763595  0.26963906    -0.10100
H193        H  0.11308537  0.17893437  0.20103195     0.07800
H194        H  0.07453815  0.20884962  0.20169790     0.11500
H195        H  0.05866411  0.18599586  0.28935989     0.11200
H196        H  0.09681736  0.15592512  0.28862929     0.07800
C197        C  0.12217598  0.89955295  0.27330721    -0.11300
C198        C  0.12842198  0.91273857  0.24751365     0.05800
C199        C  0.11611816  0.90417855  0.22192843    -0.10100
C200        C  0.09730947  0.88347102  0.22229797    -0.11700
C201        C  0.09062183  0.87079782  0.24820849    -0.01500
C202        C  0.10352437  0.87873184  0.27363109    -0.10600
C203        C  0.14684213  0.93601633  0.24751712     0.05800
H204        H  0.12035865  0.91407651  0.20175862     0.07800
H205        H  0.08768858  0.87764483  0.20238095     0.11200
H206        H  0.09873874  0.86925161  0.29389305     0.11500
H207        H  0.13162980  0.90543846  0.29329271     0.07800
C208        C  0.14540653  0.95508944  0.26945946    -0.11300
C209        C  0.16222737  0.97736267  0.26928940    -0.10600
C210        C  0.18074945  0.98111336  0.24711125    -0.01500
C211        C  0.18230023  0.96209687  0.22516634    -0.11700
C212        C  0.16551431  0.93972229  0.22538377    -0.10100
H213        H  0.13090503  0.95305268  0.28651660     0.07800
H214        H  0.16052099  0.99182161  0.28638456     0.11500
H215        H  0.19650222  0.96450211  0.20786742     0.11200
H216        H  0.16726149  0.92522345  0.20834486     0.07800
C217        C  0.29508346  0.03135087  0.36193542    -0.11300
C218        C  0.31321933  0.05251830  0.36591544     0.05800
C219        C  0.31554156  0.07208269  0.34442847    -0.10100
C220        C  0.29934034  0.07096070  0.31984101    -0.11700
C221        C  0.28083445  0.05004604  0.31619622    -0.01500
C222        C  0.27916608  0.03005218  0.33725475    -0.10600
C223        C  0.32878726  0.05457120  0.39298342     0.05800
H224        H  0.32930762  0.08866246  0.34707016     0.07800
H225        H  0.30107155  0.08656327  0.30386127     0.11200
H226        H  0.26512622  0.01365308  0.33494021     0.11500
H227        H  0.29314734  0.01586152  0.37802331     0.07800
C228        C  0.31591723  0.05086460  0.41939349    -0.11300
C229        C  0.33033487  0.05234878  0.44506370    -0.10600
C230        C  0.35806189  0.05729359  0.44494569    -0.01500
C231        C  0.37096288  0.06116616  0.41849884    -0.11700
C232        C  0.35639638  0.06002783  0.39274650    -0.10100
H233        H  0.29459477  0.04697146  0.42018066     0.07800
H234        H  0.31973756  0.04924341  0.46502051     0.11500
H235        H  0.39226886  0.06510099  0.41770314     0.11200
H236        H  0.36677210  0.06289466  0.37261714     0.07800
C237        C  0.29289273  0.07846812  0.13398664    -0.11300
C238        C  0.31107321  0.05818820  0.12732588     0.05800
C239        C  0.31286878  0.03584125  0.14548378    -0.10100
C240        C  0.29667834  0.03373304  0.16974250    -0.11700
C241        C  0.27853877  0.05403277  0.17634155    -0.01500
C242        C  0.27683911  0.07643527  0.15831126    -0.10600
C243        C  0.32753112  0.05993268  0.10104513     0.05800
H244        H  0.32643711  0.01973774  0.14059490     0.07800
H245        H  0.29827614  0.01621571  0.18324603     0.11200
H246        H  0.26296494  0.09236207  0.16291648     0.11500
H247        H  0.29122339  0.09597123  0.12047305     0.07800
C248        C  0.31593191  0.06809378  0.07497550    -0.11300
C249        C  0.33091771  0.06826098  0.04980204    -0.10600
C250        C  0.35791537  0.06047553  0.05015194    -0.01500
C251        C  0.36976620  0.05310537  0.07641546    -0.11700
C252        C  0.35466449  0.05270786  0.10159619    -0.10100
H253        H  0.29502507  0.07360430  0.07388344     0.07800
H254        H  0.32121478  0.07423383  0.02997115     0.11500
H255        H  0.39051866  0.04706572  0.07741796     0.11200
H256        H  0.36416895  0.04666498  0.12151338     0.07800
C257        C  0.93854722  0.89861788  0.27889248    -0.11300
C258        C  0.91976610  0.89951053  0.25631875     0.05800
C259        C  0.92297203  0.88209969  0.23297328    -0.10100
C260        C  0.94471014  0.86467533  0.23194799    -0.11700
C261        C  0.96367464  0.86419444  0.25428487    -0.01500
C262        C  0.96022974  0.88114621  0.27788888    -0.10600
C263        C  0.89745651  0.91908098  0.25665533     0.05800
H264        H  0.90863318  0.88189616  0.21546456     0.07800
H265        H  0.94676344  0.85169471  0.21358282     0.11200
H266        H  0.97452384  0.88117197  0.29544791     0.11500
H267        H  0.93691394  0.91192691  0.29702597     0.07800
C268        C  0.88430930  0.92548731  0.28235729    -0.11300
C269        C  0.86366716  0.94425332  0.28250184    -0.10600
C270        C  0.85578423  0.95699393  0.25696488    -0.01500
C271        C  0.86889793  0.95066514  0.23134937    -0.11700
C272        C  0.88946639  0.93195026  0.23118312    -0.10100
H273        H  0.88977798  0.91579347  0.30232693     0.07800
H274        H  0.85392806  0.94883672  0.30258033     0.11500
H275        H  0.86332800  0.96029237  0.21135836     0.11200
H276        H  0.89945868  0.92793889  0.21111922     0.07800
C277        C  0.89844267  0.16828683  0.27044980    -0.11300
C278        C  0.89733848  0.14892501  0.24877755     0.05800
C279        C  0.91556530  0.15039534  0.22600174    -0.10100
C280        C  0.93493280  0.17051287  0.22523108    -0.11700
C281        C  0.93636932  0.18956120  0.24718524    -0.01500
C282        C  0.91776060  0.18849113  0.26961769    -0.10600
C283        C  0.87802351  0.12656764  0.25045860     0.05800
H284        H  0.91530587  0.13553641  0.20919843     0.07800
H285        H  0.94904505  0.17091061  0.20768012     0.11200
H286        H  0.91834202  0.20307061  0.28669057     0.11500
H287        H  0.88441095  0.16771655  0.28807004     0.07800
C288        C  0.87462755  0.11257675  0.27634215    -0.11300
C289        C  0.85770490  0.09039557  0.27756709    -0.10600
C290        C  0.84375463  0.08192478  0.25297794    -0.01500
C291        C  0.84667428  0.09624561  0.22724330    -0.11700
C292        C  0.86374251  0.11833359  0.22597107    -0.10100
H293        H  0.88564487  0.11835799  0.29543811     0.07800
H294        H  0.85578506  0.07968252  0.29768066     0.11500
H295        H  0.83604611  0.09016382  0.20800769     0.11200
H296        H  0.86585910  0.12896004  0.20583040     0.07800
C297        C  0.54146785  0.02549132  0.47775901    -0.11300
C298        C  0.52916599  0.03995179  0.99983621     0.05800
C299        C  0.54509227  0.04894551  0.02291941    -0.10100
C300        C  0.57237875  0.04300127  0.02430266    -0.11700
C301        C  0.58450535  0.02837413  0.00236390    -0.01500
C302        C  0.56884570  0.01995121  0.47891520    -0.10600
C303        C  0.49975421  0.04486837  0.99929948     0.05800
H304        H  0.53650734  0.06067801  0.03995649     0.07800
H305        H  0.58405011  0.05011868  0.04239526     0.11200
H306        H  0.57764725  0.00855090  0.46171472     0.11500
H307        H  0.52986190  0.01786510  0.45988159     0.07800
C308        C  0.48602563  0.04927559  0.47326202    -0.11300
C309        C  0.45827044  0.05289843  0.47287020    -0.10600
C310        C  0.44356421  0.05239322  0.99851315    -0.01500
C311        C  0.45733178  0.04840320  0.02455151    -0.11700
C312        C  0.48500529  0.04456475  0.02492118    -0.10100
H313        H  0.49671877  0.05008695  0.45314717     0.07800
H314        H  0.44835515  0.05608037  0.45242235     0.11500
H315        H  0.44668505  0.04775925  0.04471178     0.11200
H316        H  0.49471977  0.04071868  0.04532753     0.07800
C317        C  0.66970941  0.00800048  0.40055137    -0.11300
C318        C  0.69774682  0.00818585  0.40121175     0.05800
C319        C  0.71119513  0.00791007  0.42769968    -0.10100
C320        C  0.69680976  0.00814935  0.45326691    -0.11700
C321        C  0.66867936  0.00911272  0.45276464    -0.01500
C322        C  0.65527133  0.00862763  0.42612699    -0.10600
C323        C  0.71309599  0.00996953  0.37439949     0.05800
H324        H  0.73287332  0.00784258  0.42854667     0.07800
H325        H  0.70778345  0.00838627  0.47336960     0.11200
H326        H  0.63362764  0.00923893  0.42499029     0.11500
H327        H  0.65904682  0.00827298  0.38025297     0.07800
C328        C  0.71014926  0.99057721  0.35299116    -0.11300
C329        C  0.72592021  0.99175639  0.32830777    -0.10600
C330        C  0.74447126  0.01260745  0.32458765    -0.01500
C331        C  0.74657571  0.03252167  0.34557649    -0.11700
C332        C  0.73118984  0.03107622  0.37039572    -0.10100
H333        H  0.69619022  0.97418933  0.35576300     0.07800
H334        H  0.72385653  0.97625015  0.31234324     0.11500
H335        H  0.76062921  0.04887570  0.34316367     0.11200
H336        H  0.73346319  0.04637488  0.38657760     0.07800
C337        C  0.66984007  0.02053038  0.10973184    -0.11300
C338        C  0.69615819  0.01083054  0.11049277     0.05800
C339        C  0.70807157  0.00247549  0.08490426    -0.10100
C340        C  0.69407192  0.00399243  0.05897416    -0.11700
C341        C  0.66770607  0.01367993  0.05805950    -0.01500
C342        C  0.65567284  0.02180493  0.08377112    -0.10600
C343        C  0.71167377  0.01028331  0.13761884     0.05800
H344        H  0.72846839  0.99527009  0.08487049     0.07800
H345        H  0.70399116  0.99755054  0.03962377     0.11200
H346        H  0.63542265  0.02937790  0.08381765     0.11500
H347        H  0.66021637  0.02701069  0.12924940     0.07800
C348        C  0.71242507  0.03275259  0.15545317    -0.11300
C349        C  0.72872062  0.03308278  0.17989517    -0.10600
C350        C  0.74439589  0.01085973  0.18704224    -0.01500
C351        C  0.74311102  0.98810425  0.16964621    -0.11700
C352        C  0.72694783  0.98784700  0.14508104    -0.10100
H353        H  0.70104389  0.05038902  0.14998003     0.07800
H354        H  0.72937999  0.05088121  0.19293256     0.11500
H355        H  0.75494526  0.97067058  0.17475222     0.11200
H356        H  0.72651204  0.97020985  0.13177428     0.07800
C357        C  0.61337540  0.02210395  0.50368100     0.79700
N358        N  0.62657689  0.02110106  0.52929454    -0.78600
C359        C  0.65313711  0.01529519  0.53031150     0.82200
N360        N  0.66643504  0.01099648  0.00544506    -0.78500
C361        C  0.65356904  0.01213455  0.97976209     0.82300
N362        N  0.62699370  0.01754051  0.97906958    -0.80200
In363      In  0.79640690  0.01433773  0.75599315     1.36900
C364        C  0.82669121  0.05793720  0.75405986     0.77100
O365        O  0.76466488  0.99403127  0.78242822    -0.61300
O366        O  0.77745344  0.03280882  0.79431162    -0.52300
C367        C  0.76262748  0.01182486  0.71199019     0.69800
O368        O  0.77714357  0.99246009  0.71939485    -0.47100
C369        C  0.83428983  0.97708837  0.75683055     0.74500
O370        O  0.81314463  0.04991077  0.73286723    -0.59000
O371        O  0.82053926  0.98257256  0.77859657    -0.49100
O372        O  0.82463418  0.04363789  0.77622070    -0.55400
C373        C  0.76246405  0.01319302  0.79966733     0.84700
O374        O  0.76525262  0.03229343  0.72739034    -0.57300
O375        O  0.82828742  0.99036157  0.73476248    -0.60600
In376      In  0.22892152  0.04818194  0.74656093     1.36900
C377        C  0.19189215  0.08615070  0.74541320     0.77100
O378        O  0.24568494  0.07027665  0.70905307    -0.61300
O379        O  0.26038342  0.03146802  0.71755760    -0.52300
C380        C  0.26272448  0.04936988  0.79106367     0.69800
O381        O  0.26029009  0.06857197  0.77376814    -0.47100
C382        C  0.19812554  0.00492344  0.74685709     0.74500
O383        O  0.20772894  0.08293314  0.76630263    -0.59000
O384        O  0.21340167  0.01061608  0.72625493    -0.49100
O385        O  0.19501822  0.06986400  0.72521874    -0.55400
C386        C  0.26117240  0.05184948  0.70167368     0.84700
O387        O  0.24801816  0.02960623  0.78540228    -0.57300
O388        O  0.19878669  0.02134501  0.76726183    -0.60600
C389        C  0.41401412  0.05542931  0.49813403     0.79700
N390        N  0.40022579  0.05694573  0.52318379    -0.78600
C391        C  0.37313631  0.05921748  0.52301653     0.82200
N392        N  0.35986242  0.05957903  0.49755029    -0.78500
C393        C  0.37322039  0.05794273  0.97236448     0.82300
N394        N  0.40034280  0.05596068  0.97278083    -0.80200
C395        C  0.02690678  0.62951905  0.00163370     0.79700
N396        N  0.02514959  0.64343980  0.52661530    -0.78600
C397        C  0.02703696  0.67049595  0.52652437     0.82200
N398        N  0.03054559  0.68344826  0.00123260    -0.78500
C399        C  0.03221350  0.66999579  0.97613507     0.82300
N400        N  0.03039379  0.64298262  0.97647878    -0.80200
In401      In  0.02984028  0.81452129  0.75104002     1.36900
C402        C  0.98714315  0.84639826  0.75293617     0.77100
O403        O  0.01362386  0.79734862  0.79175991    -0.61300
O404        O  0.05022593  0.78190267  0.77661157    -0.52300
C405        C  0.02934595  0.78147574  0.70646086     0.69800
O406        O  0.01020031  0.78294512  0.72391096    -0.47100
C407        C  0.06943956  0.85023592  0.74895949     0.74500
O408        O  0.99140997  0.83081408  0.73231342    -0.59000
O409        O  0.06524989  0.83567203  0.77057064    -0.49100
O410        O  0.00471998  0.84562712  0.77238896    -0.55400
C411        C  0.03254904  0.78128657  0.79578970     0.84700
O412        O  0.04877787  0.79676638  0.71206158    -0.57300
O413        O  0.05363418  0.84617439  0.72825021    -0.60600
C414        C  0.99934876  0.42962983  0.99679832     0.79700
N415        N  0.99615758  0.41595643  0.52177963    -0.78600
C416        C  0.99096882  0.38938572  0.52160964     0.82200
N417        N  0.98939705  0.37645509  0.99617373    -0.78500
C418        C  0.99260748  0.38969051  0.97099437     0.82300
N419        N  0.99743768  0.41639766  0.97138670    -0.80200
In420      In  0.99593934  0.24683784  0.74613919     1.36900
C421        C  0.03970842  0.21682508  0.74577064     0.77100
O422        O  0.01509613  0.26544390  0.78486408    -0.61300
O423        O  0.97609997  0.27799795  0.77329894    -0.52300
C424        C  0.99064723  0.27872988  0.70098260     0.69800
O425        O  0.01078929  0.27944446  0.71738947    -0.47100
C426        C  0.95754100  0.21008827  0.74690662     0.74500
O427        O  0.02325276  0.21671387  0.76618231    -0.59000
O428        O  0.96031820  0.22717053  0.76649451    -0.49100
O429        O  0.03385865  0.23255029  0.72553294    -0.55400
C430        C  0.99550107  0.28015577  0.79053889     0.84700
O431        O  0.97328179  0.26157954  0.70767160    -0.57300
O432        O  0.97449409  0.21184917  0.72707770    -0.60600
C433        C  0.98978867  0.37332439  0.89145521    -0.11300
C434        C  0.99191687  0.34543177  0.89206240     0.05800
C435        C  0.99327802  0.33227422  0.91862420    -0.10100
C436        C  0.99301072  0.34669403  0.94412581    -0.11700
C437        C  0.99166872  0.37468340  0.94368127    -0.01500
C438        C  0.98987978  0.38786806  0.91706429    -0.10600
C439        C  0.99345240  0.32987077  0.86522593     0.05800
H440        H  0.99458884  0.31075487  0.91963464     0.07800
H441        H  0.99435229  0.33584320  0.96421108     0.11200
H442        H  0.98865695  0.40937894  0.91602189     0.11500
H443        H  0.98874699  0.38387708  0.87116733     0.07800
C444        C  0.97475351  0.33362209  0.84297831    -0.11300
C445        C  0.97547339  0.31760230  0.81845990    -0.10600
C446        C  0.99519732  0.29793744  0.81565833    -0.01500
C447        C  0.01434415  0.29479255  0.83753624    -0.11700
C448        C  0.01336324  0.31046468  0.86216683    -0.10100
H449        H  0.95917091  0.34842566  0.84493597     0.07800
H450        H  0.96054907  0.32045646  0.80181229     0.11500
H451        H  0.02977321  0.27979284  0.83589148     0.11200
H452        H  0.02815654  0.30740432  0.87891426     0.07800
C453        C  0.98866437  0.37268478  0.60089689    -0.11300
C454        C  0.98301252  0.34524142  0.60033246     0.05800
C455        C  0.97871597  0.33272130  0.57380824    -0.10100
C456        C  0.98092486  0.34716410  0.54829781    -0.11700
C457        C  0.98739685  0.37446946  0.54876718    -0.01500
C458        C  0.99083039  0.38716998  0.57537396    -0.10600
C459        C  0.98357898  0.32929695  0.62708712     0.05800
H460        H  0.97462845  0.31154187  0.57271594     0.07800
H461        H  0.97801139  0.33675984  0.52818733     0.11200
H462        H  0.99563228  0.40819524  0.57651500     0.11500
H463        H  0.99173612  0.38288229  0.62110635     0.07800
C464        C  0.00407536  0.33348171  0.64735190    -0.11300
C465        C  0.00617402  0.31716122  0.67150820    -0.10600
C466        C  0.98772718  0.29643301  0.67595452    -0.01500
C467        C  0.96680170  0.29257481  0.65612171    -0.11700
C468        C  0.96478711  0.30882941  0.63180918    -0.10100
H469        H  0.01905353  0.34885241  0.64405575     0.07800
H470        H  0.02242600  0.32057224  0.68653348     0.11500
H471        H  0.95225906  0.27673429  0.65916453     0.11200
H472        H  0.94867315  0.30532363  0.61663389     0.07800
C473        C  0.02680638  0.55784068  0.97592901    -0.11300
C474        C  0.01851683  0.54378287  0.00050998     0.05800
C475        C  0.01397076  0.55819103  0.52588771    -0.10100
C476        C  0.01714752  0.58592530  0.52646302    -0.11700
C477        C  0.02470504  0.59997986  0.00161228    -0.01500
C478        C  0.02972195  0.58553882  0.97643069    -0.10600
C479        C  0.01412152  0.51435967  0.99942454     0.05800
H480        H  0.00726988  0.54817135  0.54516730     0.07800
H481        H  0.01312850  0.59638427  0.54624769     0.11200
H482        H  0.03589563  0.59562334  0.95697106     0.11500
H483        H  0.03116225  0.54745094  0.95620537     0.07800
C484        C  0.00399800  0.50219514  0.97438278    -0.11300
C485        C  0.99962512  0.47466850  0.97334823    -0.10600
C486        C  0.00483026  0.45865806  0.99747180    -0.01500
C487        C  0.01493651  0.47071025  0.52251057    -0.11700
C488        C  0.01969613  0.49818032  0.52341959    -0.10100
H489        H  0.99892469  0.51398666  0.95566445     0.07800
H490        H  0.99161094  0.46601023  0.95383131     0.11500
H491        H  0.01940250  0.45886409  0.54139617     0.11200
H492        H  0.02797141  0.50666735  0.54287679     0.07800
C493        C  0.03607060  0.68690783  0.89651044    -0.11300
C494        C  0.03729832  0.71488821  0.89730720     0.05800
C495        C  0.03851030  0.72765245  0.92402645    -0.10100
C496        C  0.03750293  0.71295540  0.94941654    -0.11700
C497        C  0.03521406  0.68502658  0.94883140    -0.01500
C498        C  0.03495918  0.67208584  0.92206888    -0.10600
C499        C  0.03593576  0.73112289  0.87066916     0.05800
H500        H  0.03996018  0.74915381  0.92528602     0.07800
H501        H  0.03807659  0.72365432  0.96955318     0.11200
H502        H  0.03331725  0.65060350  0.92084235     0.11500
H503        H  0.03504558  0.67658363  0.87616154     0.07800
C504        C  0.05156098  0.72505580  0.84658120    -0.11300
C505        C  0.05069794  0.74139108  0.82209831    -0.10600
C506        C  0.03380099  0.76369089  0.82120407    -0.01500
C507        C  0.01788280  0.76937586  0.84507217    -0.11700
C508        C  0.01902545  0.75337788  0.86954703    -0.10100
H509        H  0.06482292  0.70804838  0.84694121     0.07800
H510        H  0.06309671  0.73656444  0.80389005     0.11500
H511        H  0.00470588  0.78645710  0.84496779     0.11200
H512        H  0.00650555  0.75833331  0.88762047     0.07800
C513        C  0.03211413  0.72820943  0.57851306    -0.11300
C514        C  0.02597682  0.71599277  0.60478461     0.05800
C515        C  0.01913326  0.68880420  0.60519942    -0.10100
C516        C  0.01926261  0.67389852  0.57981694    -0.12100
C517        C  0.02588436  0.68604950  0.55353019    -0.01500
C518        C  0.03191500  0.71348086  0.55318451    -0.10600
C519        C  0.02723454  0.73169271  0.63161114     0.05800
H520        H  0.01432504  0.67897454  0.62525923     0.07800
H521        H  0.01435490  0.65288593  0.58081577     0.11200
H522        H  0.03695182  0.72360795  0.53336221     0.11500
H523        H  0.03707414  0.74922754  0.57759282     0.07800
C524        C  0.04966362  0.74780605  0.63750223    -0.11300
C525        C  0.05055335  0.76355849  0.66214822    -0.10600
C526        C  0.02892979  0.76369133  0.68125983    -0.01500
C527        C  0.00665921  0.74725962  0.67561774    -0.11700
C528        C  0.00588061  0.73129418  0.65105472    -0.10100
H529        H  0.06649164  0.74821650  0.62297669     0.07800
H530        H  0.06803522  0.77593032  0.66603406     0.11500
H531        H  0.98972492  0.74699930  0.68998753     0.11200
H532        H  0.98831580  0.71913319  0.64685766     0.07800
C533        C  0.13474131  0.12970631  0.72010428    -0.11300
C534        C  0.13055982  0.14590910  0.74420533     0.05800
C535        C  0.14741708  0.14289769  0.76825727    -0.10100
C536        C  0.16757927  0.12371670  0.76848413    -0.11700
C537        C  0.17129109  0.10711902  0.74468558    -0.01500
C538        C  0.15488496  0.11046782  0.72036641    -0.10600
C539        C  0.10799283  0.16505192  0.74477694     0.05800
H540        H  0.14496689  0.15535442  0.78697000     0.07800
H541        H  0.18006093  0.12167080  0.78742918     0.11200
H542        H  0.15738339  0.09797409  0.70167893     0.11500
H543        H  0.12193853  0.13135776  0.70136414     0.07800
C544        C  0.10131259  0.18028622  0.72039989    -0.11300
C545        C  0.07937992  0.19750744  0.72082800    -0.10600
C546        C  0.06361866  0.19966358  0.74556190    -0.01500
C547        C  0.07046603  0.18470978  0.77000405    -0.11700
C548        C  0.09243234  0.16763621  0.76963899    -0.10100
H549        H  0.11308499  0.17893430  0.70103157     0.07800
H550        H  0.07453778  0.20884956  0.70169779     0.11500
H551        H  0.05866408  0.18599627  0.78935998     0.11200
H552        H  0.09681733  0.15592552  0.78862916     0.07800
C553        C  0.12217573  0.89955307  0.77330730    -0.11300
C554        C  0.12842178  0.91273864  0.74751374     0.05800
C555        C  0.11611806  0.90417853  0.72192850    -0.10100
C556        C  0.09730942  0.88347097  0.72229800    -0.11700
C557        C  0.09062173  0.87079782  0.74820854    -0.01500
C558        C  0.10352416  0.87873191  0.77363118    -0.10600
C559        C  0.14684191  0.93601642  0.74751718     0.05800
H560        H  0.12035860  0.91407647  0.70175866     0.07800
H561        H  0.08768862  0.87764472  0.70238098     0.11200
H562        H  0.09873849  0.86925173  0.79389312     0.11500
H563        H  0.13162948  0.90543865  0.79329283     0.07800
C564        C  0.14540622  0.95508960  0.76945946    -0.11300
C565        C  0.16222706  0.97736283  0.76928933    -0.10600
C566        C  0.18074921  0.98111347  0.74711125    -0.01500
C567        C  0.18230008  0.96209691  0.72516641    -0.11700
C568        C  0.16551416  0.93972232  0.72538389    -0.10100
H569        H  0.13090470  0.95305288  0.78651652     0.07800
H570        H  0.16052061  0.99182186  0.78638448     0.11500
H571        H  0.19650208  0.96450209  0.70786759     0.11200
H572        H  0.16726141  0.92522340  0.70834503     0.07800
C573        C  0.29508313  0.03135126  0.86193547    -0.11300
C574        C  0.31321903  0.05251867  0.86591546     0.05800
C575        C  0.31554125  0.07208303  0.84442844    -0.10100
C576        C  0.29934002  0.07096100  0.81984099    -0.11700
C577        C  0.28083411  0.05004635  0.81619623    -0.01500
C578        C  0.27916575  0.03005255  0.83725481    -0.10600
C579        C  0.32878700  0.05457159  0.89298341     0.05800
H580        H  0.32930731  0.08866278  0.84707009     0.07800
H581        H  0.30107124  0.08656356  0.80386120     0.11200
H582        H  0.26512584  0.01365340  0.83494030     0.11500
H583        H  0.29314700  0.01586190  0.87802341     0.07800
C584        C  0.31591702  0.05086495  0.91939352    -0.11300
C585        C  0.33033470  0.05234917  0.94506373    -0.10600
C586        C  0.35806173  0.05729405  0.94494562    -0.01500
C587        C  0.37096265  0.06116664  0.91849874    -0.11700
C588        C  0.35639611  0.06002827  0.89274643    -0.10100
H589        H  0.29459461  0.04697178  0.92018073     0.07800
H590        H  0.31973750  0.04924379  0.96502046     0.11500
H591        H  0.39226864  0.06510152  0.91770298     0.11200
H592        H  0.36677178  0.06289512  0.87261708     0.07800
C593        C  0.29289252  0.07846791  0.63398646    -0.11300
C594        C  0.31107308  0.05818798  0.62732587     0.05800
C595        C  0.31286870  0.03584117  0.64548394    -0.10100
C596        C  0.29667828  0.03373301  0.66974266    -0.11700
C597        C  0.27853862  0.05403272  0.67634153    -0.01500
C598        C  0.27683890  0.07643511  0.65831110    -0.10600
C599        C  0.32753101  0.05993236  0.60104513     0.05800
H600        H  0.32643714  0.01973760  0.64059515     0.07800
H601        H  0.29827613  0.01621581  0.68324627     0.11200
H602        H  0.26296464  0.09236191  0.66291621     0.11500
H603        H  0.29122315  0.09597086  0.62047283     0.07800
C604        C  0.31593183  0.06809337  0.57497545    -0.11300
C605        C  0.33091765  0.06826048  0.54980202    -0.10600
C606        C  0.35791532  0.06047504  0.55015199    -0.01500
C607        C  0.36976612  0.05310495  0.57641555    -0.11700
C608        C  0.35466439  0.05270753  0.60159627    -0.10100
H609        H  0.29502498  0.07360387  0.57388334     0.07800
H610        H  0.32121475  0.07423326  0.52997110     0.11500
H611        H  0.39051857  0.04706530  0.57741810     0.11200
H612        H  0.36416880  0.04666474  0.62151344     0.07800
C613        C  0.93854720  0.89861783  0.77889253    -0.11300
C614        C  0.91976604  0.89951045  0.75631883     0.05800
C615        C  0.92297194  0.88209957  0.73297340    -0.10100
C616        C  0.94471004  0.86467520  0.73194801    -0.11700
C617        C  0.96367459  0.86419437  0.75428486    -0.01500
C618        C  0.96022970  0.88114615  0.77788884    -0.10600
C619        C  0.89745646  0.91908092  0.75665544     0.05800
H620        H  0.90863297  0.88189602  0.71546463     0.07800
H621        H  0.94676329  0.85169463  0.71358295     0.11200
H622        H  0.97452393  0.88117193  0.79544795     0.11500
H623        H  0.93691397  0.91192682  0.79702596     0.07800
C624        C  0.88430930  0.92548728  0.78235743    -0.11300
C625        C  0.86366718  0.94425332  0.78250195    -0.10600
C626        C  0.85578421  0.95699390  0.75696500    -0.01500
C627        C  0.86889785  0.95066508  0.73134944    -0.11700
C628        C  0.88946629  0.93195017  0.73118325    -0.10100
H629        H  0.88977799  0.91579349  0.80232701     0.07800
H630        H  0.85392810  0.94883675  0.80258048     0.11500
H631        H  0.86332793  0.96029222  0.71135853     0.11200
H632        H  0.89945859  0.92793873  0.71111923     0.07800
C633        C  0.89844282  0.16828684  0.77044987    -0.11300
C634        C  0.89733863  0.14892503  0.74877762     0.05800
C635        C  0.91556545  0.15039540  0.72600182    -0.10100
C636        C  0.93493291  0.17051295  0.72523114    -0.11700
C637        C  0.93636941  0.18956129  0.74718529    -0.01500
C638        C  0.91776072  0.18849115  0.76961773    -0.10600
C639        C  0.87802366  0.12656765  0.75045867     0.05800
H640        H  0.91530603  0.13553643  0.70919845     0.07800
H641        H  0.94904517  0.17091072  0.70768015     0.11200
H642        H  0.91834212  0.20307069  0.78669070     0.11500
H643        H  0.88441110  0.16771654  0.78807015     0.07800
C644        C  0.87462767  0.11257680  0.77634224    -0.11300
C645        C  0.85770501  0.09039564  0.77756715    -0.10600
C646        C  0.84375477  0.08192480  0.75297803    -0.01500
C647        C  0.84667444  0.09624559  0.72724334    -0.11700
C648        C  0.86374269  0.11833356  0.72597117    -0.10100
H649        H  0.88564495  0.11835806  0.79543819     0.07800
H650        H  0.85578514  0.07968257  0.79768082     0.11500
H651        H  0.83604634  0.09016381  0.70800782     0.11200
H652        H  0.86585931  0.12896005  0.70583037     0.07800
C653        C  0.54146772  0.02549105  0.97775895    -0.11300
C654        C  0.52916607  0.03995181  0.49983643     0.05800
C655        C  0.54509233  0.04894536  0.52291971    -0.10100
C656        C  0.57237883  0.04300120  0.52430295    -0.11700
C657        C  0.58450546  0.02837428  0.50236401    -0.01500
C658        C  0.56884556  0.01995087  0.97891518    -0.10600
C659        C  0.49975429  0.04486832  0.49929971     0.05800
H660        H  0.53650733  0.06067770  0.53995696     0.07800
H661        H  0.58405011  0.05011843  0.54239556     0.11200
H662        H  0.57764707  0.00855042  0.96171486     0.11500
H663        H  0.52986173  0.01786470  0.95988161     0.07800
C664        C  0.48602554  0.04927550  0.97326176    -0.11300
C665        C  0.45827036  0.05289846  0.97286994    -0.10600
C666        C  0.44356426  0.05239295  0.49851337    -0.01500
C667        C  0.45733182  0.04840281  0.52455172    -0.11700
C668        C  0.48500533  0.04456447  0.52492139    -0.10100
H669        H  0.49671866  0.05008666  0.95314689     0.07800
H670        H  0.44835506  0.05608029  0.95242210     0.11500
H671        H  0.44668505  0.04775868  0.54471199     0.11200
H672        H  0.49471982  0.04071829  0.54532775     0.07800
C673        C  0.66970933  0.00800071  0.90055127    -0.11300
C674        C  0.69774673  0.00818574  0.90121169     0.05800
C675        C  0.71119504  0.00790962  0.92769963    -0.10100
C676        C  0.69680962  0.00814890  0.95326683    -0.11700
C677        C  0.66867924  0.00911260  0.95276454    -0.01500
C678        C  0.65527122  0.00862785  0.92612686    -0.10600
C679        C  0.71309593  0.00996946  0.87439948     0.05800
H680        H  0.73287314  0.00784188  0.92854664     0.07800
H681        H  0.70778330  0.00838555  0.97336957     0.11200
H682        H  0.63362755  0.00923943  0.92499014     0.11500
H683        H  0.65904676  0.00827348  0.88025283     0.07800
C684        C  0.71014924  0.99057712  0.85299114    -0.11300
C685        C  0.72592026  0.99175637  0.82830780    -0.10600
C686        C  0.74447128  0.01260744  0.82458772    -0.01500
C687        C  0.74657568  0.03252166  0.84557657    -0.11700
C688        C  0.73118976  0.03107616  0.87039577    -0.10100
H689        H  0.69619027  0.97418929  0.85576294     0.07800
H690        H  0.72385661  0.97625009  0.81234321     0.11500
H691        H  0.76062914  0.04887569  0.84316380     0.11200
H692        H  0.73346308  0.04637482  0.88657769     0.07800
C693        C  0.66984012  0.02053065  0.60973196    -0.11300
C694        C  0.69615820  0.01083068  0.61049294     0.05800
C695        C  0.70807153  0.00247548  0.58490447    -0.10100
C696        C  0.69407191  0.00399237  0.55897434    -0.11700
C697        C  0.66770611  0.01367999  0.55805963    -0.01500
C698        C  0.65567292  0.02180515  0.58377121    -0.10600
C699        C  0.71167377  0.01028346  0.63761902     0.05800
H700        H  0.72846834  0.99526997  0.58487073     0.07800
H701        H  0.70399111  0.99755036  0.53962401     0.11200
H702        H  0.63542274  0.02937822  0.58381769     0.11500
H703        H  0.66021646  0.02701105  0.62924945     0.07800
C704        C  0.71242512  0.03275276  0.65545332    -0.11300
C705        C  0.72872067  0.03308297  0.67989533    -0.10600
C706        C  0.74439590  0.01085989  0.68704241    -0.01500
C707        C  0.74311098  0.98810440  0.66964641    -0.11700
C708        C  0.72694779  0.98784711  0.64508123    -0.10100
H709        H  0.70104396  0.05038923  0.64998015     0.07800
H710        H  0.72938008  0.05088136  0.69293266     0.11500
H711        H  0.75494520  0.97067069  0.67475244     0.11200
H712        H  0.72651196  0.97021001  0.63177456     0.07800
loop_ 
_geom_bond_atom_site_label_1 
_geom_bond_atom_site_label_2 
_geom_bond_distance 
_geom_bond_site_symmetry_2 
_ccdc_geom_bond_type 
C1            N2   1.361       .  A
C1          N362   1.358   1_554  A
C1          C301   1.479       .  S
N2            C3   1.361       .  A
C3          N360   1.358       .  A
C3          C341   1.482       .  S
N4            C5   1.356       .  A
N4          C359   1.358       .  A
C5            N6   1.357       .  A
C5          C321   1.480       .  S
N6          C357   1.358       .  A
In7           O9   2.251   1_545  S
In7          O10   2.233       .  S
In7          O18   2.235       .  S
In7          O12   2.241   1_545  S
In7          O14   2.243       .  S
In7          O15   2.258   1_545  S
In7          O16   2.239       .  S
In7          O19   2.239   1_545  S
C8          C290   1.472       .  S
C8           O14   1.260       .  A
C8           O16   1.260       .  A
O9           C17   1.261   1_565  A
O10          C17   1.259       .  A
C11         C350   1.473       .  S
C11          O18   1.261       .  A
C11          O12   1.262   1_545  A
C13         C270   1.477       .  S
C13          O15   1.260       .  A
C13          O19   1.259       .  A
C17         C330   1.473       .  S
In20         O22   2.232       .  S
In20         O23   2.247       .  S
In20         O31   2.243       .  S
In20         O25   2.254       .  S
In20         O27   2.248       .  S
In20         O28   2.245       .  S
In20         O29   2.244       .  S
In20         O32   2.236       .  S
C21         C181   1.476       .  S
C21          O27   1.261       .  A
C21          O29   1.260       .  A
O22          C30   1.259       .  A
O23          C30   1.261       .  A
C24         C221   1.476       .  S
C24          O31   1.259       .  A
C24          O25   1.260       .  A
C26         C210   1.473   1_545  S
C26          O28   1.261       .  A
C26          O32   1.261       .  A
C30         C241   1.473       .  S
C33          N34   1.361   1_556  A
C33         N394   1.361       .  A
C33         C310   1.485       .  S
N34          C35   1.359       .  A
C35          N36   1.356   1_554  A
C35         C250   1.481       .  S
N36         C393   1.356       .  A
C37          N38   1.359       .  A
C37         N392   1.356       .  A
C37         C230   1.482       .  S
N38         C389   1.361       .  A
C39          N44   1.363       .  A
C39         N396   1.363       .  A
C39         C121   1.486       .  S
N40          C41   1.361       .  A
N40         C395   1.363       .  A
C41         N398   1.356       .  A
C41         C161   1.485       .  S
N42          C43   1.356       .  A
N42         C397   1.356       .  A
C43          N44   1.358       .  A
C43         C141   1.485       .  S
In45         O47   2.236       .  S
In45         O48   2.264       .  S
In45         O56   2.243       .  S
In45         O50   2.248       .  S
In45         O52   2.260   1_455  S
In45         O53   2.248       .  S
In45         O54   2.247       .  S
In45         O57   2.247       .  S
C46         C261   1.480       .  S
C46          O52   1.261       .  A
C46          O54   1.259   1_655  A
O47          C55   1.259       .  A
O48          C55   1.260       .  A
C49         C170   1.478       .  S
C49          O56   1.261       .  A
C49          O50   1.262       .  A
C51         C201   1.475       .  S
C51          O53   1.260       .  A
C51          O57   1.260       .  A
C55         C150   1.476       .  S
C58          N63   1.362       .  A
C58         N415   1.359       .  A
C58         C130   1.481   1_655  S
N59          C60   1.357       .  A
N59         C414   1.359   1_554  A
C60         N417   1.355   1_554  A
C60         C101   1.479       .  S
N61          C62   1.356       .  A
N61         C416   1.355       .  A
C62          N63   1.361       .  A
C62          C81   1.482       .  S
In64         O66   2.242   1_655  S
In64         O67   2.253       .  S
In64         O75   2.240       .  S
In64         O69   2.238   1_655  S
In64         O71   2.240   1_655  S
In64         O72   2.244       .  S
In64         O73   2.251   1_655  S
In64         O76   2.236       .  S
C65         C190   1.477       .  S
C65          O71   1.261       .  A
C65          O73   1.262       .  A
O66          C74   1.259   1_455  A
O67          C74   1.260       .  A
C68         C110   1.471       .  S
C68          O75   1.259       .  A
C68          O69   1.261   1_655  A
C70         C281   1.473       .  S
C70          O72   1.261       .  A
C70          O76   1.260       .  A
C74          C90   1.475       .  S
C77          C78   1.405       .  A
C77          C82   1.401       .  A
C77          H87   1.083       .  S
C78          C83   1.479       .  S
C78          C79   1.402       .  A
C79          C80   1.394       .  A
C79          H84   1.083       .  S
C80          C81   1.407       .  A
C80          H85   1.083       .  S
C81          C82   1.406       .  A
C82          H86   1.083       .  S
C83          C88   1.404       .  A
C83          C92   1.404   1_655  A
C88          C89   1.400       .  A
C88          H93   1.084       .  S
C89          C90   1.405       .  A
C89          H94   1.083       .  S
C90          C91   1.403   1_655  A
C91          C92   1.395       .  A
C91          H95   1.084       .  S
C92          H96   1.083       .  S
C97          C98   1.405       .  A
C97         C102   1.396       .  A
C97         H107   1.083       .  S
C98         C103   1.479       .  S
C98          C99   1.403       .  A
C99         C100   1.395       .  A
C99         H104   1.083       .  S
C100        C101   1.407       .  A
C100        H105   1.083       .  S
C101        C102   1.405       .  A
C102        H106   1.082       .  S
C103        C108   1.404   1_655  A
C103        C112   1.406       .  A
C108        C109   1.394       .  A
C108        H113   1.083       .  S
C109        C110   1.402   1_455  A
C109        H114   1.082       .  S
C110        C111   1.404       .  A
C111        C112   1.397       .  A
C111        H115   1.084       .  S
C112        H116   1.082       .  S
C117        C118   1.406       .  A
C117        C122   1.397       .  A
C117        H127   1.082       .  S
C118        C123   1.493       .  S
C118        C475   1.409       .  A
C119        C120   1.400       .  A
C119        C474   1.409       .  A
C119        H124   1.082       .  S
C120        C477   1.406       .  A
C120        H125   1.083       .  S
C121        C122   1.406       .  A
C121        C476   1.406       .  A
C122        H126   1.083       .  S
C123        C128   1.409       .  A
C123        C488   1.407       .  A
C128        C129   1.399   1_455  A
C128        H133   1.082   1_455  S
C129        C130   1.403   1_655  A
C129        H134   1.083       .  S
C130        C487   1.406       .  A
C131        C132   1.399       .  A
C131        C486   1.406   1_554  A
C131        H135   1.083       .  S
C132        C479   1.407   1_554  A
C132        H136   1.082       .  S
C137        C138   1.406       .  A
C137        C142   1.403       .  A
C137        H147   1.083       .  S
C138        C143   1.484       .  S
C138        C139   1.403       .  A
C139        C140   1.393       .  A
C139        H144   1.083       .  S
C140        C141   1.406       .  A
C140        H145   1.083       .  S
C141        C142   1.408       .  A
C142        H146   1.083       .  S
C143        C148   1.406       .  A
C143        C152   1.405       .  A
C148        C149   1.403       .  A
C148        H153   1.083       .  S
C149        C150   1.406       .  A
C149        H154   1.082       .  S
C150        C151   1.402       .  A
C151        C152   1.394       .  A
C151        H155   1.084       .  S
C152        H156   1.083       .  S
C157        C158   1.402       .  A
C157        C162   1.395       .  A
C157        H167   1.083       .  S
C158        C163   1.481       .  S
C158        C159   1.405       .  A
C159        C160   1.402       .  A
C159        H164   1.083       .  S
C160        C161   1.407       .  A
C160        H165   1.082       .  S
C161        C162   1.408       .  A
C162        H166   1.083       .  S
C163        C168   1.405       .  A
C163        C172   1.404       .  A
C168        C169   1.397       .  A
C168        H173   1.083       .  S
C169        C170   1.404       .  A
C169        H174   1.084       .  S
C170        C171   1.406       .  A
C171        C172   1.400       .  A
C171        H175   1.082   1_455  S
C172        H176   1.084   1_455  S
C177        C178   1.406       .  A
C177        C182   1.398       .  A
C177        H187   1.083       .  S
C178        C183   1.486       .  S
C178        C179   1.406       .  A
C179        C180   1.397       .  A
C179        H184   1.083       .  S
C180        C181   1.403       .  A
C180        H185   1.083       .  S
C181        C182   1.405       .  A
C182        H186   1.083       .  S
C183        C188   1.407       .  A
C183        C192   1.406       .  A
C188        C189   1.400       .  A
C188        H193   1.083       .  S
C189        C190   1.405       .  A
C189        H194   1.083       .  S
C190        C191   1.403       .  A
C191        C192   1.396       .  A
C191        H195   1.083       .  S
C192        H196   1.083       .  S
C197        C198   1.406       .  A
C197        C202   1.397       .  A
C197        H207   1.083       .  S
C198        C203   1.483       .  S
C198        C199   1.406       .  A
C199        C200   1.398       .  A
C199        H204   1.083       .  S
C200        C201   1.404       .  A
C200        H205   1.083       .  S
C201        C202   1.403       .  A
C202        H206   1.083       .  S
C203        C208   1.405       .  A
C203        C212   1.406       .  A
C208        C209   1.395       .  A
C208        H213   1.083       .  S
C209        C210   1.403       .  A
C209        H214   1.084       .  S
C210        C211   1.404       .  A
C211        C212   1.398       .  A
C211        H215   1.083       .  S
C212        H216   1.083       .  S
C217        C218   1.405       .  A
C217        C222   1.396       .  A
C217        H227   1.082       .  S
C218        C223   1.482       .  S
C218        C219   1.405       .  A
C219        C220   1.400       .  A
C219        H224   1.084       .  S
C220        C221   1.405       .  A
C220        H225   1.082       .  S
C221        C222   1.404       .  A
C222        H226   1.084       .  S
C223        C228   1.403       .  A
C223        C232   1.405       .  A
C228        C229   1.395       .  A
C228        H233   1.083       .  S
C229        C230   1.406       .  A
C229        H234   1.083       .  S
C230        C231   1.407       .  A
C231        C232   1.401       .  A
C231        H235   1.082       .  S
C232        H236   1.083       .  S
C237        C238   1.405       .  A
C237        C242   1.396       .  A
C237        H247   1.082       .  S
C238        C243   1.481       .  S
C238        C239   1.405       .  A
C239        C240   1.397       .  A
C239        H244   1.083       .  S
C240        C241   1.403       .  A
C240        H245   1.082       .  S
C241        C242   1.404       .  A
C242        H246   1.084       .  S
C243        C248   1.404       .  A
C243        C252   1.405       .  A
C248        C249   1.395       .  A
C248        H253   1.083       .  S
C249        C250   1.406       .  A
C249        H254   1.083       .  S
C250        C251   1.406       .  A
C251        C252   1.399       .  A
C251        H255   1.083       .  S
C252        H256   1.083       .  S
C257        C258   1.406       .  A
C257        C262   1.399       .  A
C257        H267   1.083       .  S
C258        C263   1.490       .  S
C258        C259   1.408       .  A
C259        C260   1.399       .  A
C259        H264   1.083       .  S
C260        C261   1.404       .  A
C260        H265   1.083       .  S
C261        C262   1.405       .  A
C262        H266   1.083       .  S
C263        C268   1.408       .  A
C263        C272   1.406       .  A
C268        C269   1.401       .  A
C268        H273   1.083       .  S
C269        C270   1.404       .  A
C269        H274   1.083       .  S
C270        C271   1.403       .  A
C271        C272   1.396       .  A
C271        H275   1.083       .  S
C272        H276   1.083       .  S
C277        C278   1.405       .  A
C277        C282   1.397       .  A
C277        H287   1.083       .  S
C278        C283   1.478       .  S
C278        C279   1.404       .  A
C279        C280   1.395       .  A
C279        H284   1.083       .  S
C280        C281   1.404       .  A
C280        H285   1.083       .  S
C281        C282   1.404       .  A
C282        H286   1.083       .  S
C283        C288   1.404       .  A
C283        C292   1.404       .  A
C288        C289   1.396       .  A
C288        H293   1.083       .  S
C289        C290   1.404       .  A
C289        H294   1.083       .  S
C290        C291   1.404       .  A
C291        C292   1.396       .  A
C291        H295   1.083       .  S
C292        H296   1.083       .  S
C297        C302   1.398       .  A
C297        C654   1.407       .  A
C297        H307   1.082       .  S
C298        C303   1.491       .  S
C298        C299   1.408   1_556  A
C298        C653   1.407       .  A
C299        C300   1.398       .  A
C299        H304   1.082       .  S
C300        C301   1.403       .  A
C300        H305   1.083       .  S
C301        C658   1.405   1_554  A
C302        C657   1.405       .  A
C302        H306   1.083       .  S
C303        C312   1.407   1_556  A
C303        C664   1.408       .  A
C308        C309   1.400       .  A
C308        C659   1.408       .  A
C308        H313   1.082       .  S
C309        C666   1.407       .  A
C309        H314   1.083       .  S
C310        C311   1.405   1_556  A
C310        C665   1.407       .  A
C311        C312   1.397       .  A
C311        H315   1.083       .  S
C312        H316   1.082       .  S
C317        C318   1.401       .  A
C317        C322   1.397       .  A
C317        H327   1.083       .  S
C318        C323   1.472       .  S
C318        C319   1.402       .  A
C319        C320   1.395       .  A
C319        H324   1.084       .  S
C320        C321   1.407       .  A
C320        H325   1.083       .  S
C321        C322   1.407       .  A
C322        H326   1.083       .  S
C323        C328   1.403   1_545  A
C323        C332   1.402       .  A
C328        C329   1.399       .  A
C328        H333   1.083       .  S
C329        C330   1.405   1_565  A
C329        H334   1.083       .  S
C330        C331   1.404       .  A
C331        C332   1.394       .  A
C331        H335   1.083       .  S
C332        H336   1.083       .  S
C337        C338   1.405       .  A
C337        C342   1.399       .  A
C337        H347   1.083       .  S
C338        C343   1.479       .  S
C338        C339   1.402       .  A
C339        C340   1.395       .  A
C339        H344   1.083   1_545  S
C340        C341   1.407       .  A
C340        H345   1.083   1_545  S
C341        C342   1.406       .  A
C342        H346   1.083       .  S
C343        C348   1.403       .  A
C343        C352   1.405   1_545  A
C348        C349   1.396       .  A
C348        H353   1.084       .  S
C349        C350   1.404       .  A
C349        H354   1.082       .  S
C350        C351   1.404   1_545  A
C351        C352   1.397       .  A
C351        H355   1.084       .  S
C352        H356   1.083       .  S
C357        N358   1.361       .  A
C357        C657   1.479       .  S
N358        C359   1.361       .  A
C359        C697   1.482       .  S
N360        C361   1.356   1_554  A
C361        N362   1.357       .  A
C361        C677   1.480       .  S
In363       O365   2.251   1_545  S
In363       O366   2.233       .  S
In363       O374   2.235       .  S
In363       O368   2.241   1_545  S
In363       O370   2.243       .  S
In363       O371   2.258   1_545  S
In363       O372   2.239       .  S
In363       O375   2.239   1_545  S
C364        C646   1.472       .  S
C364        O370   1.260       .  A
C364        O372   1.260       .  A
O365        C373   1.261   1_565  A
O366        C373   1.259       .  A
C367        C706   1.473       .  S
C367        O374   1.261       .  A
C367        O368   1.262   1_545  A
C369        C626   1.477       .  S
C369        O371   1.260       .  A
C369        O375   1.259       .  A
C373        C686   1.473       .  S
In376       O378   2.232       .  S
In376       O379   2.247       .  S
In376       O387   2.243       .  S
In376       O381   2.254       .  S
In376       O383   2.248       .  S
In376       O384   2.245       .  S
In376       O385   2.244       .  S
In376       O388   2.236       .  S
C377        C537   1.476       .  S
C377        O383   1.261       .  A
C377        O385   1.260       .  A
O378        C386   1.259       .  A
O379        C386   1.261       .  A
C380        C577   1.476       .  S
C380        O387   1.259       .  A
C380        O381   1.260       .  A
C382        C566   1.473   1_545  S
C382        O384   1.261       .  A
C382        O388   1.261       .  A
C386        C597   1.473       .  S
C389        N390   1.361       .  A
C389        C666   1.485       .  S
N390        C391   1.359       .  A
C391        N392   1.356       .  A
C391        C606   1.481       .  S
C393        N394   1.359       .  A
C393        C586   1.482       .  S
C395        N400   1.363   1_554  A
C395        C477   1.486       .  S
N396        C397   1.361       .  A
C397        C517   1.485       .  S
N398        C399   1.356   1_554  A
C399        N400   1.358       .  A
C399        C497   1.485       .  S
In401       O403   2.236       .  S
In401       O404   2.264       .  S
In401       O412   2.243       .  S
In401       O406   2.248       .  S
In401       O408   2.260   1_455  S
In401       O409   2.248       .  S
In401       O410   2.247       .  S
In401       O413   2.247       .  S
C402        C617   1.480       .  S
C402        O408   1.261       .  A
C402        O410   1.259   1_655  A
O403        C411   1.259       .  A
O404        C411   1.260       .  A
C405        C526   1.478       .  S
C405        O412   1.261       .  A
C405        O406   1.262       .  A
C407        C557   1.475       .  S
C407        O409   1.260       .  A
C407        O413   1.260       .  A
C411        C506   1.476       .  S
C414        N419   1.362       .  A
C414        C486   1.481   1_655  S
N415        C416   1.357       .  A
C416        C457   1.479       .  S
N417        C418   1.356       .  A
C418        N419   1.361       .  A
C418        C437   1.482       .  S
In420       O422   2.242   1_655  S
In420       O423   2.253       .  S
In420       O431   2.240       .  S
In420       O425   2.238   1_655  S
In420       O427   2.240   1_655  S
In420       O428   2.244       .  S
In420       O429   2.251   1_655  S
In420       O432   2.236       .  S
C421        C546   1.477       .  S
C421        O427   1.261       .  A
C421        O429   1.262       .  A
O422        C430   1.259   1_455  A
O423        C430   1.260       .  A
C424        C466   1.471       .  S
C424        O431   1.259       .  A
C424        O425   1.261   1_655  A
C426        C637   1.473       .  S
C426        O428   1.261       .  A
C426        O432   1.260       .  A
C430        C446   1.475       .  S
C433        C434   1.405       .  A
C433        C438   1.401       .  A
C433        H443   1.083       .  S
C434        C439   1.479       .  S
C434        C435   1.402       .  A
C435        C436   1.394       .  A
C435        H440   1.083       .  S
C436        C437   1.407       .  A
C436        H441   1.083       .  S
C437        C438   1.406       .  A
C438        H442   1.083       .  S
C439        C444   1.404       .  A
C439        C448   1.404   1_655  A
C444        C445   1.400       .  A
C444        H449   1.084       .  S
C445        C446   1.405       .  A
C445        H450   1.083       .  S
C446        C447   1.403   1_655  A
C447        C448   1.395       .  A
C447        H451   1.084       .  S
C448        H452   1.083       .  S
C453        C454   1.405       .  A
C453        C458   1.396       .  A
C453        H463   1.083       .  S
C454        C459   1.479       .  S
C454        C455   1.403       .  A
C455        C456   1.395       .  A
C455        H460   1.083       .  S
C456        C457   1.407       .  A
C456        H461   1.083       .  S
C457        C458   1.405       .  A
C458        H462   1.082       .  S
C459        C464   1.404   1_655  A
C459        C468   1.406       .  A
C464        C465   1.394       .  A
C464        H469   1.083       .  S
C465        C466   1.402   1_455  A
C465        H470   1.082       .  S
C466        C467   1.404       .  A
C467        C468   1.397       .  A
C467        H471   1.084       .  S
C468        H472   1.083       .  S
C473        C474   1.406   1_556  A
C473        C478   1.397       .  A
C473        H483   1.082       .  S
C474        C479   1.493   1_554  S
C475        C476   1.400       .  A
C475        H480   1.082       .  S
C476        H481   1.083       .  S
C477        C478   1.406   1_554  A
C478        H482   1.083       .  S
C479        C484   1.409       .  A
C484        C485   1.399   1_455  A
C484        H489   1.082   1_455  S
C485        C486   1.403   1_655  A
C485        H490   1.083       .  S
C487        C488   1.399       .  A
C487        H491   1.083       .  S
C488        H492   1.082       .  S
C493        C494   1.406       .  A
C493        C498   1.403       .  A
C493        H503   1.083       .  S
C494        C499   1.484       .  S
C494        C495   1.403       .  A
C495        C496   1.393       .  A
C495        H500   1.083       .  S
C496        C497   1.406       .  A
C496        H501   1.083       .  S
C497        C498   1.408       .  A
C498        H502   1.083       .  S
C499        C504   1.406       .  A
C499        C508   1.405       .  A
C504        C505   1.403       .  A
C504        H509   1.083       .  S
C505        C506   1.406       .  A
C505        H510   1.082       .  S
C506        C507   1.402       .  A
C507        C508   1.394       .  A
C507        H511   1.084       .  S
C508        H512   1.083       .  S
C513        C514   1.402       .  A
C513        C518   1.395       .  A
C513        H523   1.083       .  S
C514        C519   1.481       .  S
C514        C515   1.405       .  A
C515        C516   1.402       .  A
C515        H520   1.083       .  S
C516        C517   1.407       .  A
C516        H521   1.082       .  S
C517        C518   1.408       .  A
C518        H522   1.083       .  S
C519        C524   1.405       .  A
C519        C528   1.404       .  A
C524        C525   1.397       .  A
C524        H529   1.083       .  S
C525        C526   1.404       .  A
C525        H530   1.084       .  S
C526        C527   1.406       .  A
C527        C528   1.400       .  A
C527        H531   1.082   1_455  S
C528        H532   1.084   1_455  S
C533        C534   1.406       .  A
C533        C538   1.398       .  A
C533        H543   1.083       .  S
C534        C539   1.486       .  S
C534        C535   1.406       .  A
C535        C536   1.397       .  A
C535        H540   1.083       .  S
C536        C537   1.403       .  A
C536        H541   1.083       .  S
C537        C538   1.405       .  A
C538        H542   1.083       .  S
C539        C544   1.407       .  A
C539        C548   1.406       .  A
C544        C545   1.400       .  A
C544        H549   1.083       .  S
C545        C546   1.405       .  A
C545        H550   1.083       .  S
C546        C547   1.403       .  A
C547        C548   1.396       .  A
C547        H551   1.083       .  S
C548        H552   1.083       .  S
C553        C554   1.406       .  A
C553        C558   1.397       .  A
C553        H563   1.083       .  S
C554        C559   1.483       .  S
C554        C555   1.406       .  A
C555        C556   1.398       .  A
C555        H560   1.083       .  S
C556        C557   1.404       .  A
C556        H561   1.083       .  S
C557        C558   1.403       .  A
C558        H562   1.083       .  S
C559        C564   1.405       .  A
C559        C568   1.406       .  A
C564        C565   1.395       .  A
C564        H569   1.083       .  S
C565        C566   1.403       .  A
C565        H570   1.084       .  S
C566        C567   1.404       .  A
C567        C568   1.398       .  A
C567        H571   1.083       .  S
C568        H572   1.083       .  S
C573        C574   1.405       .  A
C573        C578   1.396       .  A
C573        H583   1.082       .  S
C574        C579   1.482       .  S
C574        C575   1.405       .  A
C575        C576   1.400       .  A
C575        H580   1.084       .  S
C576        C577   1.405       .  A
C576        H581   1.082       .  S
C577        C578   1.404       .  A
C578        H582   1.084       .  S
C579        C584   1.403       .  A
C579        C588   1.405       .  A
C584        C585   1.395       .  A
C584        H589   1.083       .  S
C585        C586   1.406       .  A
C585        H590   1.083       .  S
C586        C587   1.407       .  A
C587        C588   1.401       .  A
C587        H591   1.082       .  S
C588        H592   1.083       .  S
C593        C594   1.405       .  A
C593        C598   1.396       .  A
C593        H603   1.082       .  S
C594        C599   1.481       .  S
C594        C595   1.405       .  A
C595        C596   1.397       .  A
C595        H600   1.083       .  S
C596        C597   1.403       .  A
C596        H601   1.082       .  S
C597        C598   1.404       .  A
C598        H602   1.084       .  S
C599        C604   1.404       .  A
C599        C608   1.405       .  A
C604        C605   1.395       .  A
C604        H609   1.083       .  S
C605        C606   1.406       .  A
C605        H610   1.083       .  S
C606        C607   1.406       .  A
C607        C608   1.399       .  A
C607        H611   1.083       .  S
C608        H612   1.083       .  S
C613        C614   1.406       .  A
C613        C618   1.399       .  A
C613        H623   1.083       .  S
C614        C619   1.490       .  S
C614        C615   1.408       .  A
C615        C616   1.399       .  A
C615        H620   1.083       .  S
C616        C617   1.404       .  A
C616        H621   1.083       .  S
C617        C618   1.405       .  A
C618        H622   1.083       .  S
C619        C624   1.408       .  A
C619        C628   1.406       .  A
C624        C625   1.401       .  A
C624        H629   1.083       .  S
C625        C626   1.404       .  A
C625        H630   1.083       .  S
C626        C627   1.403       .  A
C627        C628   1.396       .  A
C627        H631   1.083       .  S
C628        H632   1.083       .  S
C633        C634   1.405       .  A
C633        C638   1.397       .  A
C633        H643   1.083       .  S
C634        C639   1.478       .  S
C634        C635   1.404       .  A
C635        C636   1.395       .  A
C635        H640   1.083       .  S
C636        C637   1.404       .  A
C636        H641   1.083       .  S
C637        C638   1.404       .  A
C638        H642   1.083       .  S
C639        C644   1.404       .  A
C639        C648   1.404       .  A
C644        C645   1.396       .  A
C644        H649   1.083       .  S
C645        C646   1.404       .  A
C645        H650   1.083       .  S
C646        C647   1.404       .  A
C647        C648   1.396       .  A
C647        H651   1.083       .  S
C648        H652   1.083       .  S
C653        C658   1.398       .  A
C653        H663   1.082       .  S
C654        C659   1.491       .  S
C654        C655   1.408       .  A
C655        C656   1.398       .  A
C655        H660   1.082       .  S
C656        C657   1.403       .  A
C656        H661   1.083       .  S
C658        H662   1.083       .  S
C659        C668   1.407       .  A
C664        C665   1.400       .  A
C664        H669   1.082       .  S
C665        H670   1.083       .  S
C666        C667   1.405       .  A
C667        C668   1.397       .  A
C667        H671   1.083       .  S
C668        H672   1.082       .  S
C673        C674   1.401       .  A
C673        C678   1.397       .  A
C673        H683   1.083       .  S
C674        C679   1.472       .  S
C674        C675   1.402       .  A
C675        C676   1.395       .  A
C675        H680   1.084       .  S
C676        C677   1.407       .  A
C676        H681   1.083       .  S
C677        C678   1.407       .  A
C678        H682   1.083       .  S
C679        C684   1.403   1_545  A
C679        C688   1.402       .  A
C684        C685   1.399       .  A
C684        H689   1.083       .  S
C685        C686   1.405   1_565  A
C685        H690   1.083       .  S
C686        C687   1.404       .  A
C687        C688   1.394       .  A
C687        H691   1.083       .  S
C688        H692   1.083       .  S
C693        C694   1.405       .  A
C693        C698   1.399       .  A
C693        H703   1.083       .  S
C694        C699   1.479       .  S
C694        C695   1.402       .  A
C695        C696   1.395       .  A
C695        H700   1.083   1_545  S
C696        C697   1.407       .  A
C696        H701   1.083   1_545  S
C697        C698   1.406       .  A
C698        H702   1.083       .  S
C699        C704   1.403       .  A
C699        C708   1.405   1_545  A
C704        C705   1.396       .  A
C704        H709   1.084       .  S
C705        C706   1.404       .  A
C705        H710   1.082       .  S
C706        C707   1.404   1_545  A
C707        C708   1.397       .  A
C707        H711   1.084       .  S
C708        H712   1.083       .  S
