geometry optimzed in LAMMPS
_audit_creation_date              2020-11-30 
_audit_creation_method            'lammps2cif' 
_symmetry_space_group_name_H-M    'P1' 
_symmetry_Int_Tables_number       1 
_symmetry_cell_setting            triclinic 
loop_ 
_symmetry_equiv_pos_as_xyz 
  x,y,z 
_cell_length_a                    32.74659614 
_cell_length_b                    32.591324768928516 
_cell_length_c                    32.622584602087784 
_cell_angle_alpha                 91.1760588713825 
_cell_angle_beta                  91.48225797841481 
_cell_angle_gamma                 89.62702619709972 
loop_ 
_atom_site_label 
_atom_site_type_symbol 
_atom_site_fract_x 
_atom_site_fract_y 
_atom_site_fract_z 
_atom_site_charge 
N1          N  0.48432730  0.29318810  0.13256529    -0.02100
C2          C  0.52081051  0.31123807  0.14245167     0.00500
C3          C  0.52831327  0.34251563  0.11580357    -0.22400
C4          C  0.49618492  0.34340632  0.08814895    -0.22600
C5          C  0.46981989  0.31256051  0.09849829     0.00400
H6          H  0.55654024  0.35931559  0.11349310     0.14100
H7          H  0.49510707  0.36080094  0.06023329     0.14200
N8          N  0.46672342  0.20428868  0.25103551    -0.02100
C9          C  0.48303578  0.21691059  0.28807796     0.00500
C10         C  0.51536292  0.19177190  0.29926780    -0.22400
C11         C  0.51874901  0.16241721  0.26904568    -0.22600
C12         C  0.48816528  0.17002983  0.24014181     0.00400
H13         H  0.53117335  0.19129357  0.32878798     0.14100
H14         H  0.53810343  0.13541059  0.27066184     0.14200
N15         N  0.37110546  0.31716268  0.22666223    -0.02100
C16         C  0.38347490  0.35165325  0.24774031     0.00500
C17         C  0.35940117  0.35863027  0.28132836    -0.22400
C18         C  0.33074366  0.32847640  0.28074916    -0.22600
C19         C  0.33773534  0.30390668  0.24657362     0.00400
H20         H  0.35879419  0.38595528  0.30070126     0.14100
H21         H  0.30450970  0.32772147  0.30023390     0.14200
C22         C  0.40077338  0.28916835  0.20927140     0.04500
C23         C  0.42297225  0.29974566  0.17479306    -0.11700
C24         C  0.45794859  0.27708961  0.16328046     0.02000
C25         C  0.47030033  0.24340677  0.18699548    -0.10200
C26         C  0.44861942  0.23250255  0.22196168     0.04500
C27         C  0.41340125  0.25487327  0.23190174    -0.09600
H28         H  0.41458211  0.32720325  0.15843120     0.10100
H29         H  0.49834000  0.22735944  0.17987429     0.07600
H30         H  0.39728569  0.24753813  0.25913709     0.07400
O31         O  0.95174148  0.74812047  0.58070817    -0.77100
C32         C  0.04021475  0.77606013  0.67997462     0.83900
O33         O  0.90177207  0.67334575  0.69468679    -0.78300
O34         O  0.94419409  0.79538740  0.77649370    -0.79700
O35         O  0.90235107  0.86717610  0.64967821    -0.79500
O36         O  0.90013192  0.79287552  0.57872197    -0.78200
Zn37       Zn  0.96200433  0.73739988  0.64164935     1.55700
O38         O  0.94718857  0.86999771  0.70208294    -0.79600
Cd39       Cd  0.88886832  0.80585105  0.64004540     1.59700
Cd40       Cd  0.88916319  0.73481322  0.70741368     1.59600
O41         O  0.82655366  0.79825978  0.65152220    -0.79600
O42         O  0.92541041  0.77115387  0.67570827    -1.90100
Cd43       Cd  0.95822610  0.80772318  0.71502809     1.59900
O44         O  0.82729109  0.74675941  0.69530837    -0.79500
O45         O  0.02086652  0.79757936  0.70642763    -0.78200
C46         C  0.92880622  0.65527202  0.67320928     0.84400
C47         C  0.92657834  0.77054485  0.56054016     0.84000
O48         O  0.02147318  0.75261323  0.65399764    -0.77100
C49         C  0.92504577  0.88777803  0.67473907     0.84800
O50         O  0.95369807  0.67589902  0.65225278    -0.77200
C51         C  0.80777872  0.77310439  0.67379663     0.85000
C52         C  0.92103821  0.76871796  0.79226878     0.85300
O53         O  0.89944803  0.74426847  0.76983023    -0.79600
N54         N  0.45448564  0.82447017  0.75152677    -0.02100
C55         C  0.47696665  0.81137195  0.78454346     0.00500
C56         C  0.50472147  0.84111004  0.79732193    -0.22400
C57         C  0.49847867  0.87403302  0.77270833    -0.22600
C58         C  0.46700887  0.86378248  0.74560849     0.00400
H59         H  0.52404779  0.84086432  0.82474887     0.14100
H60         H  0.51222935  0.90397454  0.77707710     0.14200
N61         N  0.47921865  0.70867594  0.65513352    -0.02100
C62         C  0.46723288  0.67223398  0.63722016     0.00500
C63         C  0.49503835  0.65979876  0.60822156    -0.22400
C64         C  0.52453571  0.68908604  0.60756937    -0.22600
C65         C  0.51463843  0.71858262  0.63659401     0.00400
H66         H  0.49679684  0.63019812  0.59282985     0.14100
H67         H  0.55277591  0.68667529  0.59113470     0.14200
N68         N  0.36758123  0.80613435  0.62769534    -0.02100
C69         C  0.33401876  0.82807196  0.63881984     0.00500
C70         C  0.32739092  0.86018410  0.61237333    -0.22400
C71         C  0.35694233  0.85738123  0.58345372    -0.22600
C72         C  0.38078572  0.82362154  0.59293463     0.00400
H73         H  0.30072677  0.87993976  0.61082614     0.14100
H74         H  0.35759560  0.87469728  0.55551531     0.14200
C75         C  0.43895422  0.79738011  0.71892173     0.04500
C76         C  0.46124473  0.76171147  0.70767693    -0.11700
C77         C  0.45149766  0.73940118  0.67135409     0.02000
C78         C  0.41832809  0.75258931  0.64657267    -0.10200
C79         C  0.39551328  0.78770902  0.65714883     0.04500
C80         C  0.40572619  0.80940322  0.69381227    -0.09600
H81         H  0.48776206  0.75288609  0.72578857     0.10100
H82         H  0.41223757  0.73702547  0.61754135     0.07600
H83         H  0.38949343  0.83745832  0.70133230     0.07400
O84         O  0.39219008  0.24382999  0.78564930    -0.77100
C85         C  0.29802069  0.26585492  0.68889324     0.83900
O86         O  0.44341723  0.17317734  0.66574683    -0.78300
O87         O  0.38806870  0.29628961  0.59352893    -0.79700
O88         O  0.43603361  0.36728398  0.71984935    -0.79500
O89         O  0.44150235  0.29078155  0.78912132    -0.78200
Zn90       Zn  0.38065864  0.23308968  0.72422011     1.55700
O91         O  0.38631075  0.36782294  0.67175091    -0.79600
Cd92       Cd  0.45018253  0.30537561  0.72802197     1.59700
Cd93       Cd  0.44923342  0.23573698  0.65584010     1.59600
O94         O  0.51245011  0.29809548  0.71477557    -0.79600
O95         O  0.41334463  0.26994640  0.69164140    -1.90100
Cd96       Cd  0.37628364  0.30571098  0.65629099     1.59900
O97         O  0.51001532  0.25090363  0.66475073    -0.79500
O98         O  0.31443328  0.29165282  0.66540151    -0.78200
C99         C  0.41903979  0.15350937  0.68788589     0.84400
C100        C  0.41720021  0.26645315  0.80651173     0.84000
O101        O  0.32006197  0.24294401  0.71200315    -0.77100
C102        C  0.41087660  0.38673860  0.69667411     0.84800
O103        O  0.39343347  0.17236414  0.71059196    -0.77200
C104        C  0.53034388  0.27545792  0.68823127     0.85000
C105        C  0.41167325  0.27095423  0.57509133     0.85300
O106        O  0.43495287  0.24649974  0.59504518    -0.79600
N107        N  0.97039050  0.22707271  0.74830831    -0.02100
C108        C  0.00417039  0.20608277  0.73582667     0.00500
C109        C  0.01027552  0.17175410  0.75932888    -0.22400
C110        C  0.98062248  0.17231338  0.78814703    -0.22600
C111        C  0.95655524  0.20663495  0.78123751     0.00400
H112        H  0.03695073  0.15196119  0.75956079     0.14100
H113        H  0.98075879  0.15326645  0.81489612     0.14200
N114        N  0.95610687  0.32212019  0.63456461    -0.02100
C115        C  0.97785045  0.30755827  0.60223842     0.00500
C116        C  0.01327758  0.32967217  0.59852060    -0.22400
C117        C  0.01295330  0.35979762  0.62833935    -0.22600
C118        C  0.97725242  0.35533074  0.64954658     0.00400
H119        H  0.03427192  0.32759091  0.57345643     0.14100
H120        H  0.03348549  0.38568183  0.63024554     0.14200
N121        N  0.85540246  0.21289149  0.65107880    -0.02100
C122        C  0.86598168  0.17708155  0.63166422     0.00500
C123        C  0.83909919  0.16826874  0.59956020    -0.22400
C124        C  0.81044272  0.19895886  0.59934408    -0.22600
C125        C  0.82045727  0.22576361  0.63146907     0.00400
H126        H  0.83813166  0.14040151  0.58094365     0.14100
H127        H  0.78274364  0.19929291  0.58049323     0.14200
C128        C  0.93606904  0.29407965  0.66130295     0.04500
C129        C  0.90035017  0.27333856  0.64821185    -0.11700
C130        C  0.88577827  0.23969514  0.67004190     0.02000
C131        C  0.90735791  0.22730091  0.70550186    -0.10200
C132        C  0.94347336  0.24719827  0.71899798     0.04500
C133        C  0.95692140  0.28105482  0.69721595    -0.09600
H134        H  0.88570069  0.28126604  0.61927235     0.10100
H135        H  0.89794616  0.20000721  0.72061247     0.07600
H136        H  0.98562716  0.29528429  0.70623308     0.07400
O137        O  0.90091641  0.27273594  0.09510489    -0.77100
C138        C  0.81436504  0.24907700  0.19307556     0.83900
O139        O  0.94984203  0.35036907  0.21510591    -0.78300
O140        O  0.91204999  0.22335321  0.28673149    -0.79700
O141        O  0.95425777  0.15538805  0.16163934    -0.79500
O142        O  0.95408708  0.23018915  0.09234190    -0.78200
Zn143      Zn  0.89237561  0.28412981  0.15575641     1.55700
O144        O  0.90778469  0.15168201  0.21003969    -0.79600
Cd145      Cd  0.96526509  0.21708289  0.15374583     1.59700
Cd146      Cd  0.96429784  0.28831480  0.22529051     1.59600
O147        O  0.02695624  0.22692754  0.16729355    -0.79600
O148        O  0.92901614  0.25106070  0.18981194    -1.90100
Cd149      Cd  0.89621158  0.21339334  0.22484082     1.59900
O150        O  0.02587661  0.27876232  0.21279972    -0.79500
O151        O  0.83337166  0.22399484  0.21643694    -0.78200
C152        C  0.92516942  0.36702227  0.18924391     0.84400
C153        C  0.92692605  0.25221869  0.07449312     0.84000
O154        O  0.83357018  0.27250654  0.16937665    -0.77100
C155        C  0.93158106  0.13439346  0.18443522     0.84800
O156        O  0.90238235  0.34513162  0.16536106    -0.77200
C157        C  0.04549675  0.25297890  0.19064636     0.85000
C158        C  0.93664584  0.24783645  0.30580459     0.85300
O159        O  0.95759716  0.27412730  0.28692117    -0.79600
N160        N  0.98917089  0.80594402  0.13279729    -0.02100
C161        C  0.97584502  0.83990257  0.11255409     0.00500
C162        C  0.99785258  0.84495370  0.07749151    -0.21200
C163        C  0.02662904  0.81445920  0.07672874    -0.22600
C164        C  0.02167785  0.79152107  0.11145143     0.00400
H165        H  0.99721007  0.87132775  0.05789312     0.14100
H166        H  0.05201713  0.81284616  0.05612968     0.14200
N167        N  0.87753729  0.79397935  0.22834174    -0.02100
C168        C  0.84596632  0.81759606  0.21396200     0.00500
C169        C  0.84400966  0.85401832  0.23642837    -0.22400
C170        C  0.87372887  0.85218127  0.26651834    -0.22600
C171        C  0.89299415  0.81467741  0.26186157     0.00400
H172        H  0.81953576  0.87640834  0.23570147     0.14100
H173        H  0.87665040  0.87306602  0.29265665     0.14200
N174        N  0.89338953  0.69121652  0.11800042    -0.02100
C175        C  0.87508779  0.70078454  0.08138259     0.00500
C176        C  0.84230601  0.67539321  0.07293977    -0.22400
C177        C  0.84056204  0.64869835  0.10471070    -0.22600
C178        C  0.87238904  0.65843111  0.13185293     0.00400
H179        H  0.82413408  0.67385627  0.04475878     0.14100
H180        H  0.82138556  0.62182284  0.10518775     0.14200
C181        C  0.91271253  0.72188385  0.14458191     0.04500
C182        C  0.94732757  0.74306916  0.13206847    -0.11700
C183        C  0.96052334  0.77937995  0.15234844     0.02000
C184        C  0.93910731  0.79343660  0.18668291    -0.10200
C185        C  0.90413725  0.77306422  0.19984255     0.04500
C186        C  0.89169598  0.73688104  0.17908018    -0.09600
H187        H  0.96231051  0.73311530  0.10417877     0.10100
H188        H  0.94773781  0.82200860  0.20155878     0.07600
H189        H  0.86406805  0.72205356  0.18754601     0.07400
O190        O  0.33529115  0.73584116  0.20272264    -0.77100
C191        C  0.43203707  0.64492988  0.19292601     0.83900
O192        O  0.45719273  0.78561648  0.28383168    -0.78300
O193        O  0.52932530  0.73408748  0.16400648    -0.79700
O194        O  0.41366558  0.78111724  0.08827064    -0.79500
O195        O  0.33687962  0.78213105  0.15369436    -0.78200
Zn196      Zn  0.39508598  0.72811615  0.22090086     1.55700
O197        O  0.45536270  0.72678757  0.09175482    -0.79600
Cd198      Cd  0.39868790  0.79503968  0.14854203     1.59700
Cd199      Cd  0.46731245  0.79512518  0.22225497     1.59600
O200        O  0.40949424  0.85794697  0.15953895    -0.79600
O201        O  0.43147326  0.75935166  0.18674857    -1.90100
Cd202      Cd  0.46747492  0.72118999  0.15409556     1.59900
O203        O  0.45625073  0.85640758  0.21012077    -0.79500
O204        O  0.45722696  0.66076211  0.16878240    -0.78200
C205        C  0.42946691  0.76604582  0.30181970     0.84400
C206        C  0.31698114  0.75766683  0.17577736     0.84000
O207        O  0.40786272  0.66730603  0.21403556    -0.77100
C208        C  0.43492773  0.75298570  0.07106744     0.84800
O209        O  0.40294713  0.74454539  0.28169379    -0.77200
C210        C  0.43375147  0.87647528  0.18494088     0.85000
C211        C  0.54800301  0.76024442  0.18715144     0.85300
O212        O  0.52847594  0.78453800  0.21086324    -0.79600
C213        C  0.66121597  0.73998186  0.16606373    -0.13000
C214        C  0.67938676  0.77456939  0.18494604     0.17400
C215        C  0.65441550  0.80380887  0.20473277     0.03700
C216        C  0.61210059  0.79828896  0.20517335    -0.11500
C217        C  0.59345326  0.76377521  0.18619247    -0.02600
C218        C  0.61871427  0.73434685  0.16644778     0.02900
C219        C  0.72432985  0.78030708  0.18396487     0.09700
N220        N  0.67175916  0.83889467  0.22547076     0.66100
H221        H  0.59380877  0.82141420  0.22054224     0.19000
N222        N  0.60198179  0.69840183  0.14688119     0.76600
H223        H  0.68007854  0.71739949  0.15061551     0.10500
C224        C  0.75155901  0.75310260  0.20374370     0.04200
C225        C  0.79282598  0.76350201  0.20905476    -0.04500
C226        C  0.80783658  0.80065558  0.19453945    -0.22900
C227        C  0.78139371  0.82544009  0.17051944     0.13500
C228        C  0.73996409  0.81530123  0.16572085    -0.12000
N229        N  0.73719145  0.71657553  0.22189191     0.65100
H230        H  0.81199371  0.74412386  0.22753985     0.13000
N231        N  0.79591484  0.86135932  0.15131880     0.61800
H232        H  0.71964154  0.83559103  0.14896204     0.09200
O233        O  0.60219943  0.66505468  0.16586309    -0.39700
O234        O  0.59479340  0.69806878  0.10868928    -0.38900
O235        O  0.66791337  0.87385016  0.20984438    -0.38900
O236        O  0.68474037  0.83600750  0.26205916    -0.36600
O237        O  0.80666354  0.85850553  0.11452844    -0.37500
O238        O  0.78714974  0.89627316  0.16616616    -0.33600
O239        O  0.74072540  0.68268632  0.20289354    -0.35000
O240        O  0.72872910  0.71698984  0.25940762    -0.39300
C241        C  0.20471309  0.72414333  0.18045052    -0.13000
C242        C  0.18575944  0.75177470  0.15353667     0.17400
C243        C  0.20982934  0.78114024  0.13445287     0.03700
C244        C  0.25210264  0.78221818  0.14208324    -0.11500
C245        C  0.27159497  0.75474429  0.16912388    -0.02600
C246        C  0.24717753  0.72523285  0.18831817     0.02900
C247        C  0.14065588  0.75146029  0.14700791     0.09700
N248        N  0.19152357  0.81135117  0.10853579     0.66100
H249        H  0.26959338  0.80539178  0.12710557     0.19000
N250        N  0.26478908  0.69588684  0.21559607     0.76600
H251        H  0.18642561  0.70163192  0.19548774     0.10500
C252        C  0.12242000  0.73699594  0.10995326     0.04200
C253        C  0.08103269  0.74522561  0.10131966    -0.04500
C254        C  0.05720026  0.76821541  0.12889181    -0.22900
C255        C  0.07444155  0.77838903  0.16801436     0.13500
C256        C  0.11596896  0.77019749  0.17651373    -0.12000
N257        N  0.14601303  0.71574252  0.07991731     0.65100
H258        H  0.06835838  0.73667024  0.07136744     0.13000
N259        N  0.05161464  0.80045543  0.19808085     0.61800
H260        H  0.12958611  0.78076769  0.20542037     0.09200
O261        O  0.27422056  0.66064429  0.20202255    -0.39700
O262        O  0.26339190  0.70226618  0.25381656    -0.38900
O263        O  0.17702052  0.84371792  0.12446571    -0.38900
O264        O  0.19799580  0.81003101  0.07057237    -0.36600
O265        O  0.02898454  0.78076131  0.22133454    -0.37500
O266        O  0.06232957  0.83636899  0.20853812    -0.33600
O267        O  0.14918197  0.67719002  0.08120495    -0.35000
O268        O  0.15557872  0.73381607  0.04773994    -0.39300
C269        C  0.90718946  0.01962350  0.18946844    -0.13000
C270        C  0.94050205  0.00254496  0.16892449     0.17400
C271        C  0.97097192  0.02855679  0.15477055     0.03700
C272        C  0.96763987  0.07100393  0.16088639    -0.11500
C273        C  0.93396437  0.08871670  0.18072746    -0.02600
C274        C  0.90363016  0.06234722  0.19549306     0.02900
C275        C  0.94225629  0.95789757  0.15978304     0.09700
N276        N  0.00474837  0.01238303  0.13257889     0.66100
H277        H  0.99148887  0.09020204  0.14939662     0.19000
N278        N  0.86814454  0.07832986  0.21492477     0.76600
H279        H  0.88341486  0.99977307  0.20004770     0.10500
C280        C  0.96690945  0.93148856  0.18352455     0.04200
C281        C  0.97410157  0.89117499  0.16969312    -0.04500
C282        C  0.95670686  0.87637427  0.13247341    -0.22900
C283        C  0.92974975  0.90212549  0.11018054     0.13500
C284        C  0.92276793  0.94257933  0.12393511    -0.12000
N285        N  0.98686810  0.94586014  0.22050037     0.65100
H286        H  0.99568242  0.87262922  0.18648867     0.13000
N287        N  0.91138788  0.88845850  0.07212717     0.61800
H288        H  0.90373309  0.96268584  0.10554531     0.09200
O289        O  0.86575719  0.07696589  0.25341278    -0.39700
O290        O  0.83654950  0.08620859  0.19348435    -0.38900
O291        O  0.00206882  0.00940480  0.09398202    -0.38900
O292        O  0.03934430  0.00954343  0.15025582    -0.36600
O293        O  0.87968348  0.86673052  0.07227788    -0.37500
O294        O  0.92242949  0.90369953  0.03896841    -0.33600
O295        O  0.97105505  0.93883372  0.25448584    -0.35000
O296        O  0.02366067  0.95700229  0.21977715    -0.39300
C297        C  0.87646200  0.56323093  0.19562880    -0.13000
C298        C  0.91283331  0.54540661  0.18183973     0.17400
C299        C  0.93975855  0.56963098  0.15964373     0.03700
C300        C  0.92849127  0.60970254  0.14865040    -0.11500
C301        C  0.89008281  0.62593888  0.15856651    -0.02600
C302        C  0.86489578  0.60309464  0.18419057     0.02900
C303        C  0.91836582  0.50005743  0.18426346     0.09700
N304        N  0.97717493  0.55274412  0.14514748     0.66100
H305        H  0.94805689  0.62641771  0.12866021     0.19000
N306        N  0.82608924  0.61879127  0.19633660     0.76600
H307        H  0.85555967  0.54507659  0.21285163     0.10500
C308        C  0.93007532  0.48044315  0.22084815     0.04200
C309        C  0.93292542  0.43731994  0.22172793    -0.04500
C310        C  0.92283168  0.41284185  0.18686828    -0.22900
C311        C  0.91033409  0.43282994  0.15039583     0.13500
C312        C  0.90876530  0.47585554  0.14936028    -0.12000
N313        N  0.93858846  0.50386363  0.25749478     0.65100
H314        H  0.94210054  0.42291742  0.25015894     0.13000
N315        N  0.89921974  0.41006888  0.11393005     0.61800
H316        H  0.89906078  0.49053024  0.12121223     0.09200
O317        O  0.79384436  0.60376395  0.18041656    -0.39700
O318        O  0.82396187  0.64019974  0.22887644    -0.38900
O319        O  0.97907138  0.53994711  0.10847507    -0.38900
O320        O  0.00971222  0.55807289  0.16607598    -0.36600
O321        O  0.86201250  0.40283051  0.10595052    -0.37500
O322        O  0.92495920  0.40514974  0.08610585    -0.33600
O323        O  0.91114859  0.50857832  0.28365940    -0.35000
O324        O  0.97501200  0.51304802  0.26707255    -0.39300
C325        C  0.97970326  0.25490773  0.41569574    -0.13000
C326        C  0.94460069  0.24838791  0.43860945     0.17400
C327        C  0.90741889  0.23984218  0.41734366     0.03700
C328        C  0.90579974  0.23828002  0.37425773    -0.11500
C329        C  0.94056759  0.24601327  0.35135758    -0.02600
C330        C  0.97804919  0.25368544  0.37254467     0.02900
C331        C  0.94637890  0.25633999  0.48395358     0.09700
N332        N  0.87074271  0.23359174  0.43908184     0.66100
H333        H  0.87675630  0.23242836  0.35862695     0.19000
N334        N  0.01470623  0.26016196  0.35066064     0.76600
H335        H  0.00838385  0.26218456  0.43139368     0.10500
C336        C  0.97395109  0.23543733  0.51039053     0.04200
C337        C  0.98099176  0.25006868  0.55083624    -0.04500
C338        C  0.96045358  0.28498912  0.56586512    -0.22900
C339        C  0.93066192  0.30390716  0.54041302     0.13500
C340        C  0.92393538  0.28952599  0.49999633    -0.12000
N341        N  0.99574822  0.19995292  0.49634927     0.65100
H342        H  0.00424348  0.23547973  0.56983530     0.13000
N343        N  0.91081727  0.34099261  0.55322402     0.61800
H344        H  0.90336340  0.30655657  0.48006453     0.09200
O345        O  0.03202740  0.29464376  0.35266779    -0.39700
O346        O  0.02932026  0.23172592  0.32853557    -0.38900
O347        O  0.84459024  0.26211540  0.44118858    -0.38900
O348        O  0.86075294  0.19764249  0.44814013    -0.36600
O349        O  0.87342858  0.34033200  0.56158028    -0.37500
O350        O  0.92775451  0.37496310  0.54732687    -0.33600
O351        O  0.03304083  0.20289689  0.48812646    -0.35000
O352        O  0.98068520  0.16490504  0.50123246    -0.39300
C353        C  0.89771579  0.21769839  0.87926370    -0.13000
C354        C  0.91621469  0.25272118  0.89655587     0.17400
C355        C  0.93991317  0.27753221  0.87170819     0.03700
C356        C  0.94899209  0.26425485  0.83165955    -0.11500
C357        C  0.93446245  0.22641472  0.81586150    -0.02600
C358        C  0.90658483  0.20425332  0.83934744     0.02900
C359        C  0.91911705  0.25665095  0.94192445     0.09700
N360        N  0.95721314  0.31477113  0.88799357     0.66100
H361        H  0.97016374  0.28191364  0.81422318     0.19000
N362        N  0.88794777  0.16726412  0.82407341     0.76600
H363        H  0.87910026  0.19863504  0.89809486     0.10500
C364        C  0.88623906  0.26997760  0.96576165     0.04200
C365        C  0.88959861  0.26901210  0.00876091    -0.04500
C366        C  0.92523952  0.25410974  0.02876710    -0.22900
C367        C  0.95835441  0.24122158  0.00444409     0.13500
C368        C  0.95500469  0.24280208  0.96162302    -0.12000
N369        N  0.84925030  0.28439371  0.94674865     0.65100
H370        H  0.86378525  0.27919703  0.02647339     0.13000
N371        N  0.99572192  0.22645332  0.02249283     0.61800
H372        H  0.98036819  0.23213604  0.94347675     0.09200
O373        O  0.84947516  0.16604028  0.82119124    -0.39700
O374        O  0.90756883  0.13390588  0.82622520    -0.38900
O375        O  0.99502049  0.31671096  0.89619668    -0.38900
O376        O  0.93413950  0.34417555  0.89830625    -0.36600
O377        O  0.00192128  0.18829229  0.02464700    -0.37500
O378        O  0.02518984  0.25079189  0.02844452    -0.33600
O379        O  0.81977801  0.26006274  0.94082093    -0.35000
O380        O  0.84345896  0.32245656  0.94299155    -0.39300
C381        C  0.18247702  0.27380662  0.66387700    -0.13000
C382        C  0.16624349  0.25268133  0.69671875     0.17400
C383        C  0.19325413  0.23600068  0.72633804     0.03700
C384        C  0.23554694  0.24094414  0.72314228    -0.11500
C385        C  0.25235084  0.26215790  0.69043225    -0.02600
C386        C  0.22504100  0.27861908  0.66041444     0.02900
C387        C  0.12129463  0.24679673  0.69961268     0.09700
N388        N  0.17817248  0.21281737  0.75937846     0.66100
H389        H  0.25533782  0.22774858  0.74655467     0.19000
N390        N  0.23983412  0.29905491  0.62549052     0.76600
H391        H  0.16203184  0.28629225  0.64060360     0.10500
C392        C  0.09790287  0.27084469  0.72684289     0.04200
C393        C  0.05762734  0.25964372  0.73499348    -0.04500
C394        C  0.03975949  0.22485081  0.71602725    -0.22900
C395        C  0.06202521  0.20284196  0.68622120     0.13500
C396        C  0.10252527  0.21378801  0.67837509    -0.12000
N397        N  0.11528263  0.30566748  0.74788250     0.65100
H398        H  0.04130000  0.27653711  0.75843292     0.13000
N399        N  0.04440553  0.16821284  0.66500893     0.61800
H400        H  0.11997900  0.19530610  0.65703790     0.09200
O401        O  0.23931772  0.33775027  0.62486777    -0.39700
O402        O  0.24532784  0.27886451  0.59265342    -0.38900
O403        O  0.17362663  0.17457202  0.75477866    -0.38900
O404        O  0.17741835  0.22873389  0.79493012    -0.36600
O405        O  0.02397141  0.17350849  0.63219994    -0.37500
O406        O  0.05521061  0.13241318  0.67476687    -0.33600
O407        O  0.11100255  0.34068913  0.73252321    -0.35000
O408        O  0.12677035  0.30284344  0.78493253    -0.39300
C409        C  0.64450680  0.30201335  0.70135496    -0.13000
C410        C  0.66129790  0.27832022  0.66944682     0.17400
C411        C  0.63506885  0.25346714  0.64474002     0.03700
C412        C  0.59297926  0.25382258  0.65125003    -0.11500
C413        C  0.57570127  0.27739687  0.68313389    -0.02600
C414        C  0.60224643  0.30161729  0.70855721     0.02900
C415        C  0.70641287  0.27671017  0.66421870     0.09700
N416        N  0.65092992  0.22533163  0.61478598     0.66100
H417        H  0.57388043  0.23429178  0.63166327     0.19000
N418        N  0.58724576  0.32499706  0.74254580     0.76600
H419        H  0.66443777  0.32041502  0.72122805     0.10500
C420        C  0.72454707  0.28805253  0.62740601     0.04200
C421        C  0.76507602  0.27644762  0.61978975    -0.04500
C422        C  0.78831955  0.25361637  0.64828785    -0.22900
C423        C  0.77161220  0.24695120  0.68720614     0.13500
C424        C  0.73089590  0.25829966  0.69457367    -0.12000
N425        N  0.70170296  0.30991131  0.59683999     0.65100
H426        H  0.77734295  0.28225673  0.58994032     0.13000
N427        N  0.79387998  0.22538104  0.71833648     0.61800
H428        H  0.71748704  0.25022867  0.72331040     0.09200
O429        O  0.58183621  0.36316854  0.73930010    -0.39700
O430        O  0.58725185  0.30926611  0.77757198    -0.38900
O431        O  0.67039673  0.19398097  0.62656443    -0.38900
O432        O  0.63785255  0.22669971  0.57810389    -0.36600
O433        O  0.82283398  0.24338266  0.73736522    -0.37500
O434        O  0.77764983  0.19484955  0.73447245    -0.33600
O435        O  0.69441712  0.34763813  0.60250409    -0.35000
O436        O  0.69621135  0.29408932  0.56151107    -0.39300
C437        C  0.39818524  0.75572831  0.50036542    -0.13000
C438        C  0.42735015  0.77855481  0.47993232     0.17400
C439        C  0.44770706  0.81071677  0.50177557     0.03700
C440        C  0.43576077  0.82167448  0.54167414    -0.11500
C441        C  0.40320117  0.80181860  0.55995091    -0.02600
C442        C  0.38523328  0.76767994  0.53943307     0.02900
C443        C  0.42928254  0.77353265  0.43434036     0.09700
N444        N  0.47653009  0.83606773  0.48224999     0.66100
H445        H  0.44903761  0.84859344  0.55665871     0.19000
N446        N  0.34912904  0.74950196  0.55446809     0.76600
H447        H  0.38209760  0.73117399  0.48406144     0.10500
C448        C  0.46595036  0.76620828  0.41342634     0.04200
C449        C  0.46544177  0.76476710  0.37025228    -0.04500
C450        C  0.42866431  0.76828261  0.34730823    -0.22900
C451        C  0.39196091  0.77420320  0.36828010     0.13500
C452        C  0.39265537  0.77740591  0.41117629    -0.12000
N453        N  0.50328432  0.75745724  0.43534377     0.65100
H454        H  0.49375655  0.75921928  0.35455043     0.13000
N455        N  0.35387511  0.77877507  0.34644110     0.61800
H456        H  0.36422837  0.78338444  0.42655620     0.09200
O457        O  0.31473920  0.76497278  0.54536220    -0.39700
O458        O  0.35089871  0.71407239  0.56918024    -0.38900
O459        O  0.46375044  0.86392710  0.45879286    -0.38900
O460        O  0.51303160  0.83701502  0.49559991    -0.36600
O461        O  0.33010325  0.74854456  0.34264273    -0.37500
O462        O  0.34067601  0.81426312  0.33847705    -0.33600
O463        O  0.50662112  0.72443523  0.45472610    -0.35000
O464        O  0.53503347  0.77750010  0.42801628    -0.39300
C465        C  0.40426556  0.57621936  0.64393008    -0.13000
C466        C  0.41324332  0.56462655  0.68436576     0.17400
C467        C  0.43207467  0.59380774  0.71138269     0.03700
C468        C  0.44489160  0.63184946  0.69659188    -0.11500
C469        C  0.43952697  0.64150528  0.65501540    -0.02600
C470        C  0.41695214  0.61401722  0.62915952     0.02900
C471        C  0.40953208  0.52013772  0.69466947     0.09700
N472        N  0.44024323  0.58449236  0.75342960     0.66100
H473        H  0.46219189  0.65230726  0.71693013     0.19000
N474        N  0.40873281  0.62265551  0.58692675     0.76600
H475        H  0.39028381  0.55448064  0.62244404     0.10500
C476        C  0.37404565  0.49719306  0.68442125     0.04200
C477        C  0.37495045  0.45407438  0.68579325    -0.04500
C478        C  0.41047531  0.43268967  0.69817022    -0.22900
C479        C  0.44532900  0.45579642  0.71044357     0.13500
C480        C  0.44464918  0.49879714  0.70817981    -0.12000
N481        N  0.33673545  0.51721336  0.67257148     0.65100
H482        H  0.34756985  0.43724079  0.67709222     0.13000
N483        N  0.48273790  0.43610284  0.72249450     0.61800
H484        H  0.47266878  0.51533358  0.71475155     0.09200
O485        O  0.43133520  0.60684341  0.56005128    -0.39700
O486        O  0.37309187  0.63369353  0.57637078    -0.38900
O487        O  0.47667417  0.57978045  0.76611444    -0.38900
O488        O  0.41235280  0.58943398  0.77906640    -0.36600
O489        O  0.50854490  0.42677470  0.69574100    -0.37500
O490        O  0.49301274  0.43490031  0.75999811    -0.33600
O491        O  0.32224560  0.51192872  0.63664108    -0.35000
O492        O  0.31436378  0.53254771  0.69989857    -0.39300
C493        C  0.44639920  0.71643029  0.96004733    -0.13000
C494        C  0.44778806  0.75406733  0.94009314     0.17400
C495        C  0.44409279  0.79085449  0.96318914     0.03700
C496        C  0.43851512  0.78964616  0.00548217    -0.11500
C497        C  0.43745438  0.75215590  0.02577265    -0.02600
C498        C  0.44118697  0.71519054  0.00264161     0.02900
C499        C  0.45233838  0.75539559  0.89506483     0.09700
N500        N  0.44783534  0.82977674  0.94427106     0.66100
H501        H  0.43652308  0.81829888  0.02276408     0.19000
N502        N  0.43775604  0.67626321  0.02160081     0.76600
H503        H  0.44876508  0.68802398  0.94243676     0.10500
C504        C  0.49043137  0.74856447  0.87710453     0.04200
C505        C  0.49620251  0.76017064  0.83651813    -0.04500
C506        C  0.46470496  0.77955389  0.81382177    -0.22900
C507        C  0.42501896  0.78032816  0.82986296     0.13500
C508        C  0.41934195  0.76887984  0.87054292    -0.12000
N509        N  0.52477449  0.73495637  0.90120069     0.65100
H510        H  0.52680407  0.75906194  0.82465597     0.13000
N511        N  0.39111174  0.79685690  0.80709356     0.61800
H512        H  0.38961051  0.77306527  0.88387948     0.09200
O513        O  0.46891537  0.65362866  0.02587612    -0.39700
O514        O  0.40283161  0.66176939  0.02764873    -0.38900
O515        O  0.41694753  0.85285662  0.94048513    -0.38900
O516        O  0.48287687  0.84383512  0.93792611    -0.36600
O517        O  0.37235959  0.77414856  0.78119574    -0.37500
O518        O  0.37418735  0.82944901  0.81969485    -0.33600
O519        O  0.53875420  0.69916248  0.89569290    -0.35000
O520        O  0.54477263  0.76046796  0.92317815    -0.39300
C521        C  0.40860038  0.96282918  0.73258034    -0.13000
C522        C  0.42211667  0.97539575  0.69441656     0.17400
C523        C  0.44342748  0.94670926  0.66968679     0.03700
C524        C  0.45402132  0.90783775  0.68500001    -0.11500
C525        C  0.44362839  0.89690724  0.72475126    -0.02600
C526        C  0.41937977  0.92436760  0.74808471     0.02900
C527        C  0.42003348  0.02023172  0.68535361     0.09700
N528        N  0.45580816  0.95713283  0.62958582     0.66100
H529        H  0.47279330  0.88728710  0.66687760     0.19000
N530        N  0.40913824  0.91576453  0.78942233     0.76600
H531        H  0.39289399  0.98449462  0.75234013     0.10500
C532        C  0.38302621  0.04260391  0.68744857     0.04200
C533        C  0.38333510  0.08577676  0.68844228    -0.04500
C534        C  0.42006275  0.10767920  0.68668641    -0.22900
C535        C  0.45701245  0.08529247  0.68321551     0.13500
C536        C  0.45667565  0.04213260  0.68264534    -0.12000
N537        N  0.34480151  0.02180549  0.68847334     0.65100
H538        H  0.35460247  0.10226559  0.69027083     0.13000
N539        N  0.49548503  0.10579836  0.68394689     0.61800
H540        H  0.48552566  0.02572269  0.68269286     0.09200
O541        O  0.43561495  0.92131595  0.81776062    -0.39700
O542        O  0.37198407  0.91441254  0.79858447    -0.38900
O543        O  0.49292065  0.96447410  0.62349393    -0.38900
O544        O  0.43196843  0.94998770  0.59931325    -0.36600
O545        O  0.51233194  0.11552457  0.71796657    -0.37500
O546        O  0.51592450  0.10686031  0.65173178    -0.33600
O547        O  0.32425257  0.02332325  0.72066337    -0.35000
O548        O  0.32839887  0.00851760  0.65542837    -0.39300
C549        C  0.14936396  0.78157967  0.64211684    -0.13000
C550        C  0.17241207  0.78320771  0.67900634     0.17400
C551        C  0.15157977  0.78246427  0.71634019     0.03700
C552        C  0.10862616  0.78061953  0.71618142    -0.11500
C553        C  0.08565021  0.77856511  0.67919860    -0.02600
C554        C  0.10661065  0.77897720  0.64189075     0.02900
C555        C  0.21759591  0.78923032  0.67737434     0.09700
N556        N  0.17369086  0.78207006  0.75463611     0.66100
H557        H  0.09322094  0.77988659  0.74513497     0.19000
N558        N  0.08484631  0.77936414  0.60341176     0.76600
H559        H  0.16456104  0.78366840  0.61315562     0.10500
C560        C  0.24248643  0.76260969  0.65390935     0.04200
C561        C  0.28296168  0.77330217  0.64624964    -0.04500
C562        C  0.29922226  0.81066774  0.66082698    -0.22900
C563        C  0.27577382  0.83553283  0.68720905     0.13500
C564        C  0.23521715  0.82488677  0.69511105    -0.12000
N565        N  0.22645969  0.72562554  0.63575258     0.65100
H566        H  0.30058081  0.75381029  0.62602717     0.13000
N567        N  0.29249259  0.87246735  0.70483618     0.61800
H568        H  0.21680972  0.84569625  0.71330923     0.09200
O569        O  0.08570698  0.74796730  0.58016559    -0.39700
O570        O  0.07265282  0.81315619  0.58921526    -0.38900
O571        O  0.17308724  0.81333859  0.77806519    -0.38900
O572        O  0.18700363  0.74843741  0.76823476    -0.36600
O573        O  0.28129138  0.90691701  0.69146995    -0.37500
O574        O  0.31972374  0.87057083  0.73281894    -0.33600
O575        O  0.21957417  0.72356260  0.59752177    -0.35000
O576        O  0.22793227  0.69302281  0.65593203    -0.39300
C577        C  0.90471247  0.72682067  0.89917611    -0.13000
C578        C  0.91246916  0.76121502  0.92465015     0.17400
C579        C  0.92332362  0.79838754  0.90644818     0.03700
C580        C  0.92636569  0.80035430  0.86345315    -0.11500
C581        C  0.91866155  0.76573178  0.83789264    -0.02600
C582        C  0.90779613  0.72859470  0.85650856     0.02900
C583        C  0.90972052  0.75600634  0.96990337     0.09700
N584        N  0.93264380  0.83396532  0.93113620     0.66100
H585        H  0.93473803  0.82913168  0.85004454     0.19000
N586        N  0.90149934  0.69170330  0.83278850     0.76600
H587        H  0.89657087  0.69798114  0.91266875     0.10500
C588        C  0.87689061  0.77239438  0.99237609     0.04200
C589        C  0.86896910  0.75745769  0.03154331    -0.04500
C590        C  0.89271218  0.72572479  0.04857171    -0.22900
C591        C  0.92722430  0.71142302  0.02730291     0.13500
C592        C  0.93584465  0.72729389  0.98880338    -0.12000
N593        N  0.84839602  0.80035153  0.97404375     0.65100
H594        H  0.84185548  0.76798177  0.04704506     0.13000
N595        N  0.95043619  0.67691797  0.04149315     0.61800
H596        H  0.96078465  0.71402584  0.97170958     0.09200
O597        O  0.93139853  0.66812584  0.82601890    -0.39700
O598        O  0.86564249  0.67894843  0.82578191    -0.38900
O599        O  0.96816200  0.83811205  0.94651589    -0.38900
O600        O  0.90891737  0.86460150  0.92997416    -0.36600
O601        O  0.98834727  0.68052992  0.04843146    -0.37500
O602        O  0.93513896  0.64150128  0.03853811    -0.33600
O603        O  0.81965876  0.78649977  0.95137199    -0.35000
O604        O  0.84631244  0.83675087  0.98778901    -0.39300
C605        C  0.89957835  0.99759694  0.64294768    -0.13000
C606        C  0.92988062  0.02022783  0.66412508     0.17400
C607        C  0.95885077  0.99942550  0.68872663     0.03700
C608        C  0.95685827  0.95645600  0.69205384    -0.11500
C609        C  0.92602623  0.93353897  0.67123385    -0.02600
C610        C  0.89714131  0.95495985  0.64636882     0.02900
C611        C  0.92588274  0.06564005  0.66429489     0.09700
N612        N  0.99018760  0.02155340  0.71072008     0.66100
H613        H  0.97957946  0.94105134  0.71100768     0.19000
N614        N  0.86376642  0.93440451  0.62587513     0.76600
H615        H  0.87650168  0.01347598  0.62476921     0.10500
C616        C  0.94083065  0.08917480  0.63221313     0.04200
C617        C  0.92455869  0.12851178  0.62501922    -0.04500
C618        C  0.89269171  0.14432577  0.64876609    -0.22900
C619        C  0.87958194  0.12154276  0.68227483     0.13500
C620        C  0.89727237  0.08327997  0.69057555    -0.12000
N621        N  0.96912328  0.07179647  0.60406840     0.65100
H622        H  0.93410670  0.14505466  0.59847076     0.13000
N623        N  0.84358281  0.13306771  0.70350700     0.61800
H624        H  0.88459034  0.06490013  0.71440964     0.09200
O625        O  0.86471124  0.92773897  0.58767087    -0.39700
O626        O  0.83059137  0.93034157  0.64416530    -0.38900
O627        O  0.98721770  0.02814701  0.74877131    -0.38900
O628        O  0.02352335  0.02848233  0.69366881    -0.36600
O629        O  0.84568833  0.13816637  0.74188217    -0.37500
O630        O  0.80916695  0.12687416  0.68625691    -0.33600
O631        O  0.95619502  0.05664517  0.57031439    -0.35000
O632        O  0.00686308  0.07793069  0.60970515    -0.39300
C633        C  0.96278631  0.76535437  0.44962203    -0.13000
C634        C  0.92735677  0.77770076  0.42811361     0.17400
C635        C  0.89186556  0.78688501  0.45025776     0.03700
C636        C  0.89226741  0.78359167  0.49296717    -0.11500
C637        C  0.92762841  0.77127698  0.51483677    -0.02600
C638        C  0.96323288  0.76201208  0.49254628     0.02900
C639        C  0.92687897  0.78008946  0.38258708     0.09700
N640        N  0.85538044  0.80092175  0.42987194     0.66100
H641        H  0.86462969  0.79110811  0.50911286     0.19000
N642        N  0.00072257  0.75123124  0.51296200     0.76600
H643        H  0.99021992  0.75814954  0.43302683     0.10500
C644        C  0.95100323  0.80842533  0.36199458     0.04200
C645        C  0.94305974  0.81586082  0.32026952    -0.04500
C646        C  0.91172134  0.79498723  0.29844831    -0.22900
C647        C  0.89094816  0.76334760  0.31808171     0.13500
C648        C  0.89871099  0.75621278  0.35973449    -0.12000
N649        N  0.98111471  0.83244099  0.38373965     0.65100
H650        H  0.95908016  0.84042779  0.30577250     0.13000
N651        N  0.85821739  0.74173749  0.29783975     0.61800
H652        H  0.88070476  0.73360293  0.37496420     0.09200
O653        O  0.02829012  0.77792130  0.51736238    -0.39700
O654        O  0.00982073  0.71384643  0.51716715    -0.38900
O655        O  0.82526137  0.77713418  0.42551443    -0.38900
O656        O  0.85052406  0.83875418  0.42371054    -0.36600
O657        O  0.86558281  0.70793027  0.27991765    -0.37500
O658        O  0.82188638  0.75085022  0.30651690    -0.33600
O659        O  0.01832647  0.82263476  0.38132961    -0.35000
O660        O  0.97152023  0.86723263  0.39832098    -0.39300
C661        C  0.96428576  0.54367246  0.65716281    -0.13000
C662        C  0.93382089  0.52193746  0.67679402     0.17400
C663        C  0.90160481  0.54402843  0.69483882     0.03700
C664        C  0.90025391  0.58708717  0.69269642    -0.11500
C665        C  0.93096864  0.60922048  0.67324938    -0.02600
C666        C  0.96334207  0.58667524  0.65538582     0.02900
C667        C  0.93756232  0.47639034  0.67859943     0.09700
N668        N  0.87122977  0.52346509  0.71729912     0.66100
H669        H  0.87527100  0.60324909  0.70711602     0.19000
N670        N  0.99638069  0.60678382  0.63650228     0.76600
H671        H  0.98941314  0.52704689  0.64345075     0.10500
C672        C  0.91230209  0.45004266  0.65437305     0.04200
C673        C  0.92231130  0.40814461  0.65031462    -0.04500
C674        C  0.95801902  0.39217453  0.66890916    -0.22900
C675        C  0.98085406  0.41771461  0.69631024     0.13500
C676        C  0.97057994  0.45941253  0.70082015    -0.12000
N677        N  0.87949171  0.46609633  0.62969946     0.65100
H678        H  0.90466455  0.38924101  0.62885378     0.13000
N679        N  0.01615754  0.40228024  0.71772961     0.61800
H680        H  0.98984358  0.47914394  0.72004513     0.09200
O681        O  0.99706617  0.60846598  0.59792153    -0.39700
O682        O  0.02819956  0.61534514  0.65751382    -0.38900
O683        O  0.87819135  0.51573456  0.75458333    -0.38900
O684        O  0.83510808  0.52149049  0.70301577    -0.36600
O685        O  0.05114947  0.41470507  0.70869214    -0.37500
O686        O  0.01180351  0.38323046  0.75060002    -0.33600
O687        O  0.88705501  0.48083304  0.59525821    -0.35000
O688        O  0.84320319  0.45697098  0.63765423    -0.39300
C689        C  0.69532491  0.80753561  0.66919236    -0.13000
C690        C  0.67506846  0.77015353  0.67423098     0.17400
C691        C  0.69887273  0.73407984  0.67893079     0.03700
C692        C  0.74170982  0.73625228  0.68010762    -0.11500
C693        C  0.76209305  0.77342160  0.67441220    -0.02600
C694        C  0.73829865  0.80941524  0.66888705     0.02900
C695        C  0.62938856  0.76833088  0.67088067     0.09700
N696        N  0.68019934  0.69448838  0.67878651     0.66100
H697        H  0.75918829  0.70810985  0.68327812     0.19000
N698        N  0.75717349  0.84828147  0.66367158     0.76600
H699        H  0.67764119  0.83540853  0.66500955     0.10500
C700        C  0.60581425  0.74943019  0.70087204     0.04200
C701        C  0.56545308  0.73745333  0.69123632    -0.04500
C702        C  0.54712935  0.74638965  0.65307283    -0.22900
C703        C  0.56863811  0.77100909  0.62594814     0.13500
C704        C  0.60963119  0.78109026  0.63457558    -0.12000
N705        N  0.62254124  0.74202700  0.74101012     0.65100
H706        H  0.54955419  0.71853500  0.71246506     0.13000
N707        N  0.54994600  0.78351053  0.58812623     0.61800
H708        H  0.62671886  0.79678962  0.61170074     0.09200
O709        O  0.76304004  0.87183146  0.69441169    -0.39700
O710        O  0.76000680  0.86228887  0.62809208    -0.38900
O711        O  0.66250145  0.68107668  0.64643767    -0.38900
O712        O  0.68872048  0.66998359  0.70726050    -0.36600
O713        O  0.53011185  0.81680525  0.58709709    -0.37500
O714        O  0.55927597  0.76561711  0.55497338    -0.33600
O715        O  0.63130242  0.77221941  0.76436813    -0.35000
O716        O  0.62019560  0.70675643  0.75600509    -0.39300
C717        C  0.43910557  0.45191746  0.24047297    -0.13000
C718        C  0.41842954  0.46860472  0.20661439     0.17400
C719        C  0.39310559  0.44330278  0.18162640     0.03700
C720        C  0.38595201  0.40276828  0.19295752    -0.11500
C721        C  0.40356656  0.38709377  0.22916971    -0.02600
C722        C  0.43177353  0.41156623  0.25210536     0.02900
C723        C  0.42071125  0.51334163  0.20066552     0.09700
N724        N  0.37284881  0.45899792  0.14589495     0.66100
H725        H  0.36404599  0.38472703  0.17522877     0.19000
N726        N  0.45234465  0.39658637  0.28802018     0.76600
H727        H  0.45916246  0.47110243  0.25941241     0.10500
C728        C  0.39105219  0.53991395  0.21721162     0.04200
C729        C  0.39549673  0.58240464  0.21445332    -0.04500
C730        C  0.42954388  0.59943679  0.19578412    -0.22900
C731        C  0.45950772  0.57247816  0.17951278     0.13500
C732        C  0.45470360  0.52985467  0.18198046    -0.12000
N733        N  0.35702435  0.52421376  0.23839991     0.65100
H734        H  0.37209282  0.60209487  0.22725991     0.13000
N735        N  0.49584106  0.58763751  0.16198506     0.61800
H736        H  0.47812114  0.50954323  0.17014244     0.09200
O737        O  0.43437863  0.39771833  0.32177015    -0.39700
O738        O  0.49078615  0.39421312  0.28837944    -0.38900
O739        O  0.39025663  0.45661360  0.11187458    -0.38900
O740        O  0.33534592  0.46797507  0.14681237    -0.36600
O741        O  0.52687384  0.59442991  0.18479354    -0.37500
O742        O  0.49954232  0.58617928  0.12357912    -0.33600
O743        O  0.35937908  0.52111757  0.27688135    -0.35000
O744        O  0.32251721  0.52225934  0.22038009    -0.39300
C745        C  0.24755874  0.27446835  0.17902218    -0.13000
C746        C  0.22222337  0.25831145  0.20862535     0.17400
C747        C  0.23937897  0.24738122  0.24687129     0.03700
C748        C  0.28027635  0.25657230  0.25643941    -0.11500
C749        C  0.30442001  0.27762205  0.22878537    -0.02600
C750        C  0.28866852  0.28362068  0.18855790     0.02900
C751        C  0.17736111  0.25715907  0.20111689     0.09700
N752        N  0.21453972  0.23093877  0.27785363     0.66100
H753        H  0.29186912  0.25126453  0.28730042     0.19000
N754        N  0.31269702  0.30208813  0.15810834     0.76600
H755        H  0.23481346  0.28202223  0.14913426     0.10500
C756        C  0.15342588  0.29264812  0.20747690     0.04200
C757        C  0.11079051  0.29063770  0.20354152    -0.04500
C758        C  0.09105412  0.25371773  0.19244849    -0.22900
C759        C  0.11535383  0.21840517  0.18453644     0.13500
C760        C  0.15810640  0.22033054  0.18941109    -0.12000
N761        N  0.17208816  0.33091238  0.21865555     0.65100
H762        H  0.09304617  0.31823733  0.20921923     0.13000
N763        N  0.09718306  0.18000897  0.17297948     0.61800
H764        H  0.17630574  0.19289688  0.18444679     0.09200
O765        O  0.30424540  0.33804804  0.14692555    -0.39700
O766        O  0.33464496  0.27944723  0.13572277    -0.38900
O767        O  0.21754755  0.19341161  0.28624571    -0.38900
O768        O  0.19559193  0.25497981  0.30159534    -0.36600
O769        O  0.09544126  0.16907184  0.13564797    -0.37500
O770        O  0.09035940  0.15406651  0.20011639    -0.33600
O771        O  0.17865141  0.35676746  0.19136384    -0.35000
O772        O  0.17567635  0.34149112  0.25598578    -0.39300
C773        C  0.40223685  0.29664024  0.46064958    -0.13000
C774        C  0.42112022  0.26206441  0.44295426     0.17400
C775        C  0.43550662  0.23054727  0.46849469     0.03700
C776        C  0.43086017  0.23382589  0.51089046    -0.11500
C777        C  0.41276187  0.26867707  0.52927703    -0.02600
C778        C  0.39800017  0.30026765  0.50346776     0.02900
C779        C  0.42958302  0.26016283  0.39849149     0.09700
N780        N  0.45731033  0.19607864  0.45201726     0.66100
H781        H  0.44262026  0.20911678  0.52958826     0.19000
N782        N  0.38072573  0.33712505  0.52015310     0.76600
H783        H  0.39180652  0.32139087  0.44127452     0.10500
C784        C  0.40754318  0.23385975  0.37135465     0.04200
C785        C  0.42327937  0.22369066  0.33286553    -0.04500
C786        C  0.46071911  0.23960477  0.32060365    -0.22900
C787        C  0.48082532  0.26877117  0.34649482     0.13500
C788        C  0.46494124  0.27904286  0.38492151    -0.12000
N789        N  0.37051182  0.21519154  0.38346592     0.65100
H790        H  0.40786283  0.20063935  0.31403859     0.13000
N791        N  0.51896973  0.28600933  0.33565264     0.61800
H792        H  0.48213360  0.29926934  0.40558685     0.09200
O793        O  0.34249052  0.34220608  0.51877581    -0.39700
O794        O  0.40356687  0.36737130  0.52843331    -0.38900
O795        O  0.49525452  0.19882056  0.44691153    -0.38900
O796        O  0.44080933  0.16119014  0.45075027    -0.36600
O797        O  0.52027559  0.32361816  0.32758749    -0.37500
O798        O  0.55173480  0.26761691  0.34530452    -0.33600
O799        O  0.33676813  0.23152807  0.37346544    -0.35000
O800        O  0.37118324  0.17867969  0.39558919    -0.39300
C801        C  0.42546288  0.07990000  0.20233834    -0.13000
C802        C  0.45675550  0.05402864  0.18828900     0.17400
C803        C  0.49533691  0.07110896  0.18110126     0.03700
C804        C  0.50342758  0.11184145  0.19309556    -0.11500
C805        C  0.47360512  0.13634959  0.21201094    -0.02600
C806        C  0.43340594  0.12097587  0.21377782     0.02900
C807        C  0.45039179  0.00875770  0.18702970     0.09700
N808        N  0.52705696  0.04703205  0.16304068     0.66100
H809        H  0.53419113  0.12340964  0.19056268     0.19000
N810        N  0.40123504  0.14510284  0.23082089     0.76600
H811        H  0.39543325  0.06741730  0.20718421     0.10500
C812        C  0.47180739  0.98328101  0.21475655     0.04200
C813        C  0.46587472  0.94076996  0.21309090    -0.04500
C814        C  0.43749627  0.92236652  0.18534274    -0.22900
C815        C  0.41460360  0.94830763  0.15882293     0.13500
C816        C  0.42153643  0.99096390  0.15963857    -0.12000
N817        N  0.49777212  0.00033857  0.24663340     0.65100
H818        H  0.48313078  0.92219834  0.23463934     0.13000
N819        N  0.38348125  0.93225857  0.13165045     0.61800
H820        H  0.40402815  0.01034636  0.13901562     0.09200
O821        O  0.38927401  0.13750920  0.26630821    -0.39700
O822        O  0.37862322  0.16602615  0.20720594    -0.38900
O823        O  0.52577211  0.04007039  0.12484276    -0.38900
O824        O  0.56005520  0.04105356  0.18292590    -0.36600
O825        O  0.34712579  0.93104986  0.14346903    -0.37500
O826        O  0.39056797  0.92755242  0.09401002    -0.33600
O827        O  0.48210996  0.02098727  0.27543304    -0.35000
O828        O  0.53417194  0.98779809  0.25064918    -0.39300
C829        C  0.61795235  0.30087363  0.20619536    -0.13000
C830        C  0.63716333  0.26828169  0.18528758     0.17400
C831        C  0.61341723  0.24413122  0.15728941     0.03700
C832        C  0.57294621  0.25576803  0.14742570    -0.11500
C833        C  0.55564123  0.29147965  0.16468702    -0.02600
C834        C  0.57804589  0.31318390  0.19543312     0.02900
C835        C  0.68256777  0.26312967  0.18966392     0.09700
N836        N  0.63100863  0.21007421  0.13569823     0.66100
H837        H  0.55638148  0.23903363  0.12333483     0.19000
N838        N  0.56158271  0.34922595  0.21449139     0.76600
H839        H  0.63500562  0.31871762  0.22906298     0.10500
C840        C  0.70887356  0.29644985  0.18297716     0.04200
C841        C  0.75125024  0.29092010  0.18486061    -0.04500
C842        C  0.76895943  0.25270193  0.19370919    -0.22900
C843        C  0.74289073  0.21957453  0.20198260     0.13500
C844        C  0.70012520  0.22497668  0.19970677    -0.12000
N845        N  0.69314154  0.33607329  0.17282168     0.65100
H846        H  0.77050013  0.31695515  0.17901755     0.13000
N847        N  0.75916277  0.17992504  0.21110495     0.61800
H848        H  0.68060294  0.19921778  0.20565394     0.09200
O849        O  0.56538329  0.38342827  0.19760726    -0.39700
O850        O  0.55309956  0.34839334  0.25191857    -0.38900
O851        O  0.62207483  0.17402371  0.14546606    -0.38900
O852        O  0.64913208  0.21588917  0.10267050    -0.36600
O853        O  0.76191232  0.16875982  0.24788561    -0.37500
O854        O  0.76336298  0.15368069  0.18252864    -0.33600
O855        O  0.69536964  0.36492428  0.19917433    -0.35000
O856        O  0.68566916  0.34429547  0.13575047    -0.39300
C857        C  0.45431028  0.26965376  0.91833730    -0.13000
C858        C  0.41790910  0.26462312  0.93937556     0.17400
C859        C  0.38108533  0.25961786  0.91641094     0.03700
C860        C  0.38147813  0.25898955  0.87321178    -0.11500
C861        C  0.41797991  0.26471994  0.85219494    -0.02600
C862        C  0.45466349  0.26996415  0.87541894     0.02900
C863        C  0.41954128  0.26907341  0.98500660     0.09700
N864        N  0.34305196  0.25575377  0.93642681     0.66100
H865        H  0.35292594  0.25529741  0.85607905     0.19000
N866        N  0.49278960  0.27528207  0.85593893     0.76600
H867        H  0.48269802  0.27458977  0.93544837     0.10500
C868        C  0.44459121  0.24313921  0.00924490     0.04200
C869        C  0.45590333  0.25509195  0.04954945    -0.04500
C870        C  0.44334374  0.29309893  0.06603181    -0.22900
C871        C  0.41479895  0.31680043  0.04343759     0.13500
C872        C  0.40303136  0.30461673  0.00330922    -0.12000
N873        N  0.46170130  0.20635463  0.99213460     0.65100
H874        H  0.47813259  0.23668927  0.06625765     0.13000
N875        N  0.40049255  0.35524383  0.05946772     0.61800
H876        H  0.38389395  0.32495035  0.98520465     0.09200
O877        O  0.51542945  0.24449686  0.84938079    -0.39700
O878        O  0.50721613  0.31087863  0.85300752    -0.38900
O879        O  0.31992974  0.28668323  0.93994223    -0.38900
O880        O  0.32906484  0.22050748  0.94263681    -0.36600
O881        O  0.36829997  0.35639626  0.07988750    -0.37500
O882        O  0.41511664  0.38820941  0.04672261    -0.33600
O883        O  0.49828778  0.20608856  0.98088714    -0.35000
O884        O  0.44348049  0.17275720  0.99622536    -0.39300
loop_ 
_geom_bond_atom_site_label_1 
_geom_bond_atom_site_label_2 
_geom_bond_distance 
_geom_bond_site_symmetry_2 
_ccdc_geom_bond_type 
N1            C5   1.363       .  A
N1            C2   1.363       .  A
N1           C24   1.448       .  S
C2            C3   1.381       .  A
C2          C833   1.486       .  S
C3            C4   1.369       .  A
C3            H6   1.082       .  S
C4            C5   1.382       .  A
C4            H7   1.082       .  S
C5          C870   1.486       .  S
N8           C12   1.361       .  A
N8            C9   1.365       .  A
N8           C26   1.448       .  S
C9           C10   1.381       .  A
C9          C786   1.486       .  S
C10          C11   1.366       .  A
C10          H13   1.082       .  S
C11          C12   1.382       .  A
C11          H14   1.083       .  S
C12         C805   1.489       .  S
N15          C19   1.363       .  A
N15          C16   1.364       .  A
N15          C22   1.447       .  S
C16          C17   1.381       .  A
C16         C721   1.481       .  S
C17          C18   1.363       .  A
C17          H20   1.082       .  S
C18          C19   1.382       .  A
C18          H21   1.083       .  S
C19         C749   1.490       .  S
C22          C23   1.405       .  A
C22          C27   1.406       .  A
C23          C24   1.413       .  A
C23          H28   1.082       .  S
C24          C25   1.407       .  A
C25          C26   1.412       .  A
C25          H29   1.082       .  S
C26          C27   1.402       .  A
C27          H30   1.077       .  S
O31          C47   1.277       .  A
O31         Zn37   2.044       .  S
C32         C553   1.492       .  S
C32          O48   1.277       .  A
C32          O45   1.279       .  A
O33          C46   1.277       .  A
O33         Cd40   2.078       .  S
O34          C52   1.282       .  A
O34         Cd43   2.116       .  S
O35          C49   1.274       .  A
O35         Cd39   2.066       .  S
O36          C47   1.278       .  A
O36         Cd39   2.078       .  S
Zn37         O48   2.041   1_655  S
Zn37         O50   2.062       .  S
Zn37         O42   1.970       .  S
O38          C49   1.280       .  A
O38         Cd43   2.109       .  S
Cd39         O41   2.101       .  S
Cd39         O42   2.007       .  S
Cd40         O44   2.090       .  S
Cd40         O53   2.072       .  S
Cd40         O42   2.003       .  S
O41          C51   1.278       .  A
O42         Cd43   2.026       .  S
Cd43         O45   2.101   1_655  S
O44          C51   1.278       .  A
C46         C665   1.502       .  S
C46          O50   1.280       .  A
C47         C637   1.493       .  S
C49         C609   1.499       .  S
C51         C693   1.497       .  S
C52         C581   1.498       .  S
C52          O53   1.276       .  A
N54          C58   1.367       .  A
N54          C55   1.363       .  A
N54          C75   1.452       .  S
C55          C56   1.384       .  A
C55         C506   1.488       .  S
C56          C57   1.365       .  A
C56          H59   1.083       .  S
C57          C58   1.379       .  A
C57          H60   1.083       .  S
C58         C525   1.486       .  S
N61          C65   1.365       .  A
N61          C62   1.368       .  A
N61          C77   1.448       .  S
C62          C63   1.383       .  A
C62         C469   1.492       .  S
C63          C64   1.363       .  A
C63          H66   1.080       .  S
C64          C65   1.378       .  A
C64          H67   1.082       .  S
C65         C702   1.485       .  S
N68          C72   1.361       .  A
N68          C69   1.360       .  A
N68          C79   1.446       .  S
C69          C70   1.382       .  A
C69         C562   1.484       .  S
C70          C71   1.370       .  A
C70          H73   1.082       .  S
C71          C72   1.381       .  A
C71          H74   1.083       .  S
C72         C441   1.485       .  S
C75          C76   1.416       .  A
C75          C80   1.404       .  A
C76          C77   1.408       .  A
C76          H81   1.078       .  S
C77          C78   1.407       .  A
C78          C79   1.405       .  A
C78          H82   1.080       .  S
C79          C80   1.411       .  A
C80          H83   1.082       .  S
O84         C100   1.279       .  A
O84         Zn90   2.053       .  S
C85         C385   1.503       .  S
C85         O101   1.279       .  A
C85          O98   1.279       .  A
O86          C99   1.275       .  A
O86         Cd93   2.082       .  S
O87         C105   1.279       .  A
O87         Cd96   2.109       .  S
O88         C102   1.278       .  A
O88         Cd92   2.088       .  S
O89         C100   1.278       .  A
O89         Cd92   2.086       .  S
Zn90        O101   2.039       .  S
Zn90        O103   2.062       .  S
Zn90         O95   1.961       .  S
O91         C102   1.281       .  A
O91         Cd96   2.102       .  S
Cd92         O94   2.106       .  S
Cd92         O95   2.021       .  S
Cd93         O97   2.066       .  S
Cd93        O106   2.062       .  S
Cd93         O95   1.997       .  S
O94         C104   1.277       .  A
O95         Cd96   2.031       .  S
Cd96         O98   2.109       .  S
O97         C104   1.275       .  A
C99         C534   1.494       .  S
C99         O103   1.279       .  A
C100        C861   1.492       .  S
C102        C478   1.497       .  S
C104        C413   1.501       .  S
C105        C777   1.496       .  S
C105        O106   1.276       .  A
N107        C111   1.364       .  A
N107        C108   1.364   1_655  A
N107        C132   1.448       .  S
C108        C109   1.380       .  A
C108        C394   1.488       .  S
C109        C110   1.369   1_455  A
C109        H112   1.082       .  S
C110        C111   1.383       .  A
C110        H113   1.081       .  S
C111        C357   1.490       .  S
N114        C118   1.364       .  A
N114        C115   1.363       .  A
N114        C128   1.448       .  S
C115        C116   1.379   1_655  A
C115        C338   1.486       .  S
C116        C117   1.368       .  A
C116        H119   1.083       .  S
C117        C118   1.384   1_455  A
C117        H120   1.082       .  S
C118        C674   1.489       .  S
N121        C125   1.364       .  A
N121        C122   1.363       .  A
N121        C130   1.447       .  S
C122        C123   1.378       .  A
C122        C618   1.484       .  S
C123        C124   1.367       .  A
C123        H126   1.082       .  S
C124        C125   1.385       .  A
C124        H127   1.083       .  S
C125        C422   1.493       .  S
C128        C129   1.407       .  A
C128        C133   1.412       .  A
C129        C130   1.412       .  A
C129        H134   1.083       .  S
C130        C131   1.405       .  A
C131        C132   1.409       .  A
C131        H135   1.076       .  S
C132        C133   1.404       .  A
C133        H136   1.082       .  S
O137        C153   1.276       .  A
O137       Zn143   2.032       .  S
C138        C842   1.491       .  S
C138        O154   1.277       .  A
C138        O151   1.277       .  A
O139        C152   1.279       .  A
O139       Cd146   2.105       .  S
O140        C158   1.279       .  A
O140       Cd149   2.091       .  S
O141        C155   1.276       .  A
O141       Cd145   2.068       .  S
O142        C153   1.276       .  A
O142       Cd145   2.079       .  S
Zn143       O154   2.027       .  S
Zn143       O156   2.034       .  S
Zn143       O148   1.949       .  S
O144        C155   1.277       .  A
O144       Cd149   2.093       .  S
Cd145       O147   2.082   1_655  S
Cd145       O148   2.005       .  S
Cd146       O150   2.088   1_655  S
Cd146       O159   2.090       .  S
Cd146       O148   2.010       .  S
O147        C157   1.275       .  A
O148       Cd149   2.026       .  S
Cd149       O151   2.096       .  S
O150        C157   1.278       .  A
C152        C310   1.498       .  S
C152        O156   1.275       .  A
C153        C366   1.494       .  S
C155        C273   1.493       .  S
C157        C758   1.492       .  S
C158        C329   1.491       .  S
C158        O159   1.279       .  A
N160        C164   1.363   1_655  A
N160        C161   1.364       .  A
N160        C183   1.449       .  S
C161        C162   1.381       .  A
C161        C282   1.486       .  S
C162        C163   1.365   1_655  A
C162        H165   1.082       .  S
C163        C164   1.384       .  A
C163        H166   1.083       .  S
C164        C254   1.492       .  S
N167        C171   1.361       .  A
N167        C168   1.364       .  A
N167        C185   1.448       .  S
C168        C169   1.384       .  A
C168        C226   1.490       .  S
C169        C170   1.366       .  A
C169        H172   1.080       .  S
C170        C171   1.379       .  A
C170        H173   1.083       .  S
C171        C646   1.484       .  S
N174        C178   1.365       .  A
N174        C175   1.364       .  A
N174        C181   1.448       .  S
C175        C176   1.378       .  A
C175        C590   1.488       .  S
C176        C177   1.369       .  A
C176        H179   1.083       .  S
C177        C178   1.384       .  A
C177        H180   1.082       .  S
C178        C301   1.490       .  S
C181        C182   1.405       .  A
C181        C186   1.411       .  A
C182        C183   1.409       .  A
C182        H187   1.088       .  S
C183        C184   1.404       .  A
C184        C185   1.408       .  A
C184        H188   1.077       .  S
C185        C186   1.405       .  A
C186        H189   1.074       .  S
O190        C206   1.277       .  A
O190       Zn196   2.047       .  S
C191        C730   1.490       .  S
C191        O207   1.278       .  A
C191        O204   1.274       .  A
O192        C205   1.275       .  A
O192       Cd199   2.074       .  S
O193        C211   1.276       .  A
O193       Cd202   2.087       .  S
O194        C208   1.277       .  A
O194       Cd198   2.079       .  S
O195        C206   1.278       .  A
O195       Cd198   2.082       .  S
Zn196       O207   2.032       .  S
Zn196       O209   2.054       .  S
Zn196       O201   1.957       .  S
O197        C208   1.275       .  A
O197       Cd202   2.073       .  S
Cd198       O200   2.105       .  S
Cd198       O201   2.008       .  S
Cd199       O203   2.072       .  S
Cd199       O212   2.072       .  S
Cd199       O201   1.993       .  S
O200        C210   1.278       .  A
O201       Cd202   2.016       .  S
Cd202       O204   2.068       .  S
O203        C210   1.277       .  A
C205        C450   1.485       .  S
C205        O209   1.279       .  A
C206        C245   1.500       .  S
C208        C497   1.482       .  S
C210        C814   1.501       .  S
C211        C217   1.495       .  S
C211        O212   1.276       .  A
C213        C214   1.402       .  A
C213        C218   1.405       .  A
C213        H223   1.083       .  S
C214        C215   1.409       .  A
C214        C219   1.486       .  S
C215        N220   1.430       .  S
C215        C216   1.399       .  A
C216        C217   1.408       .  A
C216        H221   1.083       .  S
C217        C218   1.418       .  A
C218        N222   1.428       .  S
C219        C224   1.407       .  A
C219        C228   1.403       .  A
N220        O235   1.262       .  A
N220        O236   1.262       .  A
N222        O233   1.262       .  A
N222        O234   1.262       .  A
C224        N229   1.428       .  S
C224        C225   1.401       .  A
C225        C226   1.405       .  A
C225        H230   1.071       .  S
C226        C227   1.414       .  A
C227        N231   1.429       .  S
C227        C228   1.402       .  A
C228        H232   1.081       .  S
N229        O239   1.261       .  A
N229        O240   1.262       .  A
N231        O237   1.261       .  A
N231        O238   1.262       .  A
C241        C242   1.401       .  A
C241        C246   1.408       .  A
C241        H251   1.083       .  S
C242        C243   1.409       .  A
C242        C247   1.487       .  S
C243        N248   1.430       .  S
C243        C244   1.401       .  A
C244        C245   1.408       .  A
C244        H249   1.083       .  S
C245        C246   1.420       .  A
C246        N250   1.428       .  S
C247        C252   1.408       .  A
C247        C256   1.401       .  A
N248        O263   1.262       .  A
N248        O264   1.262       .  A
N250        O261   1.262       .  A
N250        O262   1.262       .  A
C252        N257   1.429       .  S
C252        C253   1.402       .  A
C253        C254   1.407       .  A
C253        H258   1.084       .  S
C254        C255   1.416       .  A
C255        N259   1.428       .  S
C255        C256   1.406       .  A
C256        H260   1.083       .  S
N257        O267   1.262       .  A
N257        O268   1.262       .  A
N259        O265   1.262       .  A
N259        O266   1.262       .  A
C269        C270   1.401       .  A
C269        C274   1.407       .  A
C269        H279   1.083   1_545  S
C270        C271   1.407       .  A
C270        C275   1.480   1_545  S
C271        N276   1.430   1_655  S
C271        C272   1.398       .  A
C272        C273   1.408       .  A
C272        H277   1.083       .  S
C273        C274   1.418       .  A
C274        N278   1.428       .  S
C275        C280   1.407       .  A
C275        C284   1.402       .  A
N276        O291   1.262       .  A
N276        O292   1.262       .  A
N278        O289   1.262       .  A
N278        O290   1.262       .  A
C280        N285   1.429       .  S
C280        C281   1.401       .  A
C281        C282   1.405       .  A
C281        H286   1.074       .  S
C282        C283   1.412       .  A
C283        N287   1.429       .  S
C283        C284   1.403       .  A
C284        H288   1.081       .  S
N285        O295   1.262       .  A
N285        O296   1.262   1_655  A
N287        O293   1.261       .  A
N287        O294   1.262       .  A
C297        C298   1.402       .  A
C297        C302   1.406       .  A
C297        H307   1.083       .  S
C298        C299   1.411       .  A
C298        C303   1.491       .  S
C299        N304   1.428       .  S
C299        C300   1.406       .  A
C300        C301   1.404       .  A
C300        H305   1.083       .  S
C301        C302   1.415       .  A
C302        N306   1.429       .  S
C303        C308   1.409       .  A
C303        C312   1.402       .  A
N304        O319   1.262       .  A
N304        O320   1.262   1_655  A
N306        O317   1.262       .  A
N306        O318   1.261       .  A
C308        N313   1.427       .  S
C308        C309   1.409       .  A
C309        C310   1.409       .  A
C309        H314   1.083       .  S
C310        C311   1.418       .  A
C311        N315   1.429       .  S
C311        C312   1.404       .  A
C312        H316   1.083       .  S
N313        O323   1.262       .  A
N313        O324   1.262       .  A
N315        O321   1.262       .  A
N315        O322   1.262       .  A
C325        C326   1.407       .  A
C325        C330   1.407       .  A
C325        H335   1.083   1_655  S
C326        C327   1.412       .  A
C326        C331   1.496       .  S
C327        N332   1.428       .  S
C327        C328   1.405       .  A
C328        C329   1.405       .  A
C328        H333   1.084       .  S
C329        C330   1.414       .  A
C330        N334   1.431   1_655  S
C331        C336   1.414       .  A
C331        C340   1.404       .  A
N332        O347   1.262       .  A
N332        O348   1.261       .  A
N334        O345   1.262       .  A
N334        O346   1.262       .  A
C336        N341   1.429       .  S
C336        C337   1.408       .  A
C337        C338   1.404       .  A
C337        H342   1.083   1_655  S
C338        C339   1.412       .  A
C339        N343   1.429       .  S
C339        C340   1.403       .  A
C340        H344   1.083       .  S
N341        O351   1.262   1_655  A
N341        O352   1.262       .  A
N343        O349   1.262       .  A
N343        O350   1.262       .  A
C353        C354   1.397       .  A
C353        C358   1.402       .  A
C353        H363   1.084       .  S
C354        C355   1.407       .  A
C354        C359   1.484       .  S
C355        N360   1.429       .  S
C355        C356   1.406       .  A
C356        C357   1.408       .  A
C356        H361   1.084       .  S
C357        C358   1.418       .  A
C358        N362   1.429       .  S
C359        C364   1.406       .  A
C359        C368   1.401       .  A
N360        O375   1.262       .  A
N360        O376   1.262       .  A
N362        O373   1.262       .  A
N362        O374   1.262       .  A
C364        N369   1.428       .  S
C364        C365   1.405   1_556  A
C365        C366   1.411       .  A
C365        H370   1.083       .  S
C366        C367   1.417       .  A
C367        N371   1.429       .  S
C367        C368   1.400   1_554  A
C368        H372   1.084       .  S
N369        O379   1.262       .  A
N369        O380   1.262       .  A
N371        O377   1.262   1_655  A
N371        O378   1.262   1_655  A
C381        C382   1.403       .  A
C381        C386   1.411       .  A
C381        H391   1.083       .  S
C382        C383   1.408       .  A
C382        C387   1.491       .  S
C383        N388   1.429       .  S
C383        C384   1.402       .  A
C384        C385   1.409       .  A
C384        H389   1.083       .  S
C385        C386   1.420       .  A
C386        N390   1.428       .  S
C387        C392   1.410       .  A
C387        C396   1.404       .  A
N388        O403   1.262       .  A
N388        O404   1.262       .  A
N390        O401   1.262       .  A
N390        O402   1.262       .  A
C392        N397   1.428       .  S
C392        C393   1.404       .  A
C393        C394   1.404       .  A
C393        H398   1.083       .  S
C394        C395   1.412       .  A
C395        N399   1.429       .  S
C395        C396   1.407       .  A
C396        H400   1.083       .  S
N397        O407   1.261       .  A
N397        O408   1.262       .  A
N399        O405   1.262       .  A
N399        O406   1.262       .  A
C409        C410   1.405       .  A
C409        C414   1.410       .  A
C409        H419   1.083       .  S
C410        C411   1.411       .  A
C410        C415   1.492       .  S
C411        N416   1.431       .  S
C411        C412   1.400       .  A
C412        C413   1.409       .  A
C412        H417   1.083       .  S
C413        C414   1.418       .  A
C414        N418   1.428       .  S
C415        C420   1.410       .  A
C415        C424   1.400       .  A
N416        O431   1.262       .  A
N416        O432   1.262       .  A
N418        O429   1.262       .  A
N418        O430   1.262       .  A
C420        N425   1.430       .  S
C420        C421   1.405       .  A
C421        C422   1.408       .  A
C421        H426   1.084       .  S
C422        C423   1.417       .  A
C423        N427   1.429       .  S
C423        C424   1.407       .  A
C424        H428   1.083       .  S
N425        O435   1.262       .  A
N425        O436   1.262       .  A
N427        O433   1.261       .  A
N427        O434   1.262       .  A
C437        C438   1.404       .  A
C437        C442   1.400       .  A
C437        H447   1.084       .  S
C438        C439   1.416       .  A
C438        C443   1.496       .  S
C439        N444   1.429       .  S
C439        C440   1.407       .  A
C440        C441   1.403       .  A
C440        H445   1.084       .  S
C441        C442   1.411       .  A
C442        N446   1.428       .  S
C443        C448   1.413       .  A
C443        C452   1.407       .  A
N444        O459   1.262       .  A
N444        O460   1.262       .  A
N446        O457   1.262       .  A
N446        O458   1.260       .  A
C448        N453   1.430       .  S
C448        C449   1.408       .  A
C449        C450   1.407       .  A
C449        H454   1.083       .  S
C450        C451   1.409       .  A
C451        N455   1.429       .  S
C451        C452   1.401       .  A
C452        H456   1.084       .  S
N453        O463   1.262       .  A
N453        O464   1.262       .  A
N455        O461   1.262       .  A
N455        O462   1.262       .  A
C465        C466   1.403       .  A
C465        C470   1.401       .  A
C465        H475   1.082       .  S
C466        C467   1.417       .  A
C466        C471   1.502       .  S
C467        N472   1.429       .  S
C467        C468   1.410       .  A
C468        C469   1.405       .  A
C468        H473   1.083       .  S
C469        C470   1.416       .  A
C470        N474   1.430       .  S
C471        C476   1.415       .  A
C471        C480   1.406       .  A
N472        O487   1.262       .  A
N472        O488   1.262       .  A
N474        O485   1.262       .  A
N474        O486   1.261       .  A
C476        N481   1.429       .  S
C476        C477   1.407       .  A
C477        C478   1.407       .  A
C477        H482   1.083       .  S
C478        C479   1.416       .  A
C479        N483   1.429       .  S
C479        C480   1.405       .  A
C480        H484   1.082       .  S
N481        O491   1.262       .  A
N481        O492   1.262       .  A
N483        O489   1.262       .  A
N483        O490   1.262       .  A
C493        C494   1.402       .  A
C493        C498   1.406   1_556  A
C493        H503   1.083       .  S
C494        C495   1.409       .  A
C494        C499   1.482       .  S
C495        N500   1.429       .  S
C495        C496   1.398   1_556  A
C496        C497   1.403       .  A
C496        H501   1.083       .  S
C497        C498   1.415       .  A
C498        N502   1.429       .  S
C499        C504   1.406       .  A
C499        C508   1.401       .  A
N500        O515   1.262       .  A
N500        O516   1.262       .  A
N502        O513   1.262       .  A
N502        O514   1.262       .  A
C504        N509   1.429       .  S
C504        C505   1.402       .  A
C505        C506   1.408       .  A
C505        H510   1.084       .  S
C506        C507   1.413       .  A
C507        N511   1.429       .  S
C507        C508   1.403       .  A
C508        H512   1.083       .  S
N509        O519   1.262       .  A
N509        O520   1.262       .  A
N511        O517   1.262       .  A
N511        O518   1.261       .  A
C521        C522   1.402       .  A
C521        C526   1.401       .  A
C521        H531   1.083       .  S
C522        C523   1.415       .  A
C522        C527   1.498   1_565  S
C523        N528   1.428       .  S
C523        C524   1.409       .  A
C524        C525   1.403       .  A
C524        H529   1.083       .  S
C525        C526   1.416       .  A
C526        N530   1.432       .  S
C527        C532   1.413       .  A
C527        C536   1.406       .  A
N528        O543   1.262       .  A
N528        O544   1.262       .  A
N530        O541   1.262       .  A
N530        O542   1.262       .  A
C532        N537   1.429       .  S
C532        C533   1.407       .  A
C533        C534   1.406       .  A
C533        H538   1.083       .  S
C534        C535   1.415       .  A
C535        N539   1.429       .  S
C535        C536   1.406       .  A
C536        H540   1.083       .  S
N537        O547   1.262       .  A
N537        O548   1.262       .  A
N539        O545   1.262       .  A
N539        O546   1.262       .  A
C549        C550   1.404       .  A
C549        C554   1.403       .  A
C549        H559   1.083       .  S
C550        C551   1.412       .  A
C550        C555   1.496       .  S
C551        N556   1.428       .  S
C551        C552   1.408       .  A
C552        C553   1.406       .  A
C552        H557   1.083       .  S
C553        C554   1.413       .  A
C554        N558   1.428       .  S
C555        C560   1.414       .  A
C555        C564   1.408       .  A
N556        O571   1.262       .  A
N556        O572   1.262       .  A
N558        O569   1.262       .  A
N558        O570   1.262       .  A
C560        N565   1.429       .  S
C560        C561   1.403       .  A
C561        C562   1.402       .  A
C561        H566   1.081       .  S
C562        C563   1.409       .  A
C563        N567   1.429       .  S
C563        C564   1.406       .  A
C564        H568   1.083       .  S
N565        O575   1.262       .  A
N565        O576   1.261       .  A
N567        O573   1.262       .  A
N567        O574   1.262       .  A
C577        C578   1.402       .  A
C577        C582   1.401       .  A
C577        H587   1.084       .  S
C578        C579   1.412       .  A
C578        C583   1.495       .  S
C579        N584   1.428       .  S
C579        C580   1.412       .  A
C580        C581   1.409       .  A
C580        H585   1.083       .  S
C581        C582   1.417       .  A
C582        N586   1.430       .  S
C583        C588   1.413       .  A
C583        C592   1.405       .  A
N584        O599   1.262       .  A
N584        O600   1.262       .  A
N586        O597   1.262       .  A
N586        O598   1.262       .  A
C588        N593   1.429       .  S
C588        C589   1.408   1_556  A
C589        C590   1.405       .  A
C589        H594   1.083       .  S
C590        C591   1.413       .  A
C591        N595   1.431       .  S
C591        C592   1.404   1_554  A
C592        H596   1.084       .  S
N593        O603   1.262       .  A
N593        O604   1.262       .  A
N595        O601   1.262       .  A
N595        O602   1.262       .  A
C605        C606   1.400   1_565  A
C605        C610   1.399       .  A
C605        H615   1.084   1_565  S
C606        C607   1.407   1_545  A
C606        C611   1.485       .  S
C607        N612   1.428   1_565  S
C607        C608   1.409       .  A
C608        C609   1.411       .  A
C608        H613   1.083       .  S
C609        C610   1.420       .  A
C610        N614   1.430       .  S
C611        C616   1.410       .  A
C611        C620   1.399       .  A
N612        O627   1.262       .  A
N612        O628   1.262   1_655  A
N614        O625   1.262       .  A
N614        O626   1.262       .  A
C616        N621   1.428       .  S
C616        C617   1.407       .  A
C617        C618   1.405       .  A
C617        H622   1.083       .  S
C618        C619   1.412       .  A
C619        N623   1.427       .  S
C619        C620   1.400       .  A
C620        H624   1.084       .  S
N621        O631   1.262       .  A
N621        O632   1.261   1_655  A
N623        O629   1.260       .  A
N623        O630   1.262       .  A
C633        C634   1.401       .  A
C633        C638   1.406       .  A
C633        H643   1.083       .  S
C634        C635   1.411       .  A
C634        C639   1.488       .  S
C635        N640   1.429       .  S
C635        C636   1.399       .  A
C636        C637   1.405       .  A
C636        H641   1.083       .  S
C637        C638   1.418       .  A
C638        N642   1.427   1_655  S
C639        C644   1.411       .  A
C639        C648   1.401       .  A
N640        O655   1.262       .  A
N640        O656   1.262       .  A
N642        O653   1.261       .  A
N642        O654   1.262       .  A
C644        N649   1.428       .  S
C644        C645   1.405       .  A
C645        C646   1.405       .  A
C645        H650   1.083       .  S
C646        C647   1.412       .  A
C647        N651   1.427       .  S
C647        C648   1.400       .  A
C648        H652   1.083       .  S
N649        O659   1.262   1_655  A
N649        O660   1.262       .  A
N651        O657   1.262       .  A
N651        O658   1.262       .  A
C661        C662   1.403       .  A
C661        C666   1.404       .  A
C661        H671   1.084       .  S
C662        C663   1.408       .  A
C662        C667   1.491       .  S
C663        N668   1.429       .  S
C663        C664   1.407       .  A
C664        C665   1.413       .  A
C664        H669   1.083       .  S
C665        C666   1.417       .  A
C666        N670   1.428       .  S
C667        C672   1.412       .  A
C667        C676   1.403       .  A
N668        O683   1.262       .  A
N668        O684   1.262       .  A
N670        O681   1.262       .  A
N670        O682   1.262   1_655  A
C672        N677   1.429       .  S
C672        C673   1.407       .  A
C673        C674   1.405       .  A
C673        H678   1.082       .  S
C674        C675   1.412       .  A
C675        N679   1.429   1_655  S
C675        C676   1.404       .  A
C676        H680   1.083       .  S
N677        O687   1.262       .  A
N677        O688   1.262       .  A
N679        O685   1.262       .  A
N679        O686   1.262       .  A
C689        C690   1.406       .  A
C689        C694   1.409       .  A
C689        H699   1.083       .  S
C690        C691   1.415       .  A
C690        C695   1.499       .  S
C691        N696   1.431       .  S
C691        C692   1.405       .  A
C692        C693   1.405       .  A
C692        H697   1.083       .  S
C693        C694   1.416       .  A
C694        N698   1.428       .  S
C695        C700   1.415       .  A
C695        C704   1.404       .  A
N696        O711   1.262       .  A
N696        O712   1.262       .  A
N698        O709   1.262       .  A
N698        O710   1.262       .  A
C700        N705   1.431       .  S
C700        C701   1.406       .  A
C701        C702   1.403       .  A
C701        H706   1.082       .  S
C702        C703   1.411       .  A
C703        N707   1.429       .  S
C703        C704   1.404       .  A
C704        H708   1.083       .  S
N705        O715   1.262       .  A
N705        O716   1.262       .  A
N707        O713   1.262       .  A
N707        O714   1.262       .  A
C717        C718   1.398       .  A
C717        C722   1.400       .  A
C717        H727   1.083       .  S
C718        C719   1.407       .  A
C718        C723   1.477       .  S
C719        N724   1.428       .  S
C719        C720   1.402       .  A
C720        C721   1.405       .  A
C720        H725   1.079       .  S
C721        C722   1.414       .  A
C722        N726   1.429       .  S
C723        C728   1.408       .  A
C723        C732   1.399       .  A
N724        O739   1.261       .  A
N724        O740   1.262       .  A
N726        O737   1.261       .  A
N726        O738   1.260       .  A
C728        N733   1.429       .  S
C728        C729   1.398       .  A
C729        C730   1.407       .  A
C729        H734   1.083       .  S
C730        C731   1.419       .  A
C731        N735   1.429       .  S
C731        C732   1.403       .  A
C732        H736   1.083       .  S
N733        O743   1.262       .  A
N733        O744   1.262       .  A
N735        O741   1.262       .  A
N735        O742   1.262       .  A
C745        C746   1.402       .  A
C745        C750   1.406       .  A
C745        H755   1.083       .  S
C746        C747   1.407       .  A
C746        C751   1.484       .  S
C747        N752   1.429       .  S
C747        C748   1.400       .  A
C748        C749   1.407       .  A
C748        H753   1.084       .  S
C749        C750   1.414       .  A
C750        N754   1.428       .  S
C751        C756   1.408       .  A
C751        C760   1.401       .  A
N752        O767   1.261       .  A
N752        O768   1.262       .  A
N754        O765   1.261       .  A
N754        O766   1.262       .  A
C756        N761   1.429       .  S
C756        C757   1.401       .  A
C757        C758   1.406       .  A
C757        H762   1.083       .  S
C758        C759   1.418       .  A
C759        N763   1.429       .  S
C759        C760   1.407       .  A
C760        H764   1.083       .  S
N761        O771   1.262       .  A
N761        O772   1.262       .  A
N763        O769   1.262       .  A
N763        O770   1.262       .  A
C773        C774   1.403       .  A
C773        C778   1.410       .  A
C773        H783   1.083       .  S
C774        C775   1.407       .  A
C774        C779   1.484       .  S
C775        N780   1.430       .  S
C775        C776   1.397       .  A
C776        C777   1.408       .  A
C776        H781   1.083       .  S
C777        C778   1.418       .  A
C778        N782   1.428       .  S
C779        C784   1.408       .  A
C779        C788   1.401       .  A
N780        O795   1.262       .  A
N780        O796   1.262       .  A
N782        O793   1.262       .  A
N782        O794   1.262       .  A
C784        N789   1.429       .  S
C784        C785   1.402       .  A
C785        C786   1.405       .  A
C785        H790   1.080       .  S
C786        C787   1.413       .  A
C787        N791   1.429       .  S
C787        C788   1.403       .  A
C788        H792   1.083       .  S
N789        O799   1.262       .  A
N789        O800   1.262       .  A
N791        O797   1.260       .  A
N791        O798   1.262       .  A
C801        C802   1.403       .  A
C801        C806   1.406       .  A
C801        H811   1.083       .  S
C802        C803   1.411       .  A
C802        C807   1.491       .  S
C803        N808   1.430       .  S
C803        C804   1.401       .  A
C804        C805   1.405       .  A
C804        H809   1.084       .  S
C805        C806   1.415       .  A
C806        N810   1.428       .  S
C807        C812   1.411   1_545  A
C807        C816   1.404   1_545  A
N808        O823   1.262       .  A
N808        O824   1.262       .  A
N810        O821   1.262       .  A
N810        O822   1.262       .  A
C812        N817   1.432   1_565  S
C812        C813   1.400       .  A
C813        C814   1.409       .  A
C813        H818   1.083       .  S
C814        C815   1.419       .  A
C815        N819   1.428       .  S
C815        C816   1.410       .  A
C816        H820   1.083   1_565  S
N817        O827   1.262       .  A
N817        O828   1.262   1_545  A
N819        O825   1.262       .  A
N819        O826   1.262       .  A
C829        C830   1.405       .  A
C829        C834   1.403       .  A
C829        H839   1.082       .  S
C830        C831   1.414       .  A
C830        C835   1.499       .  S
C831        N836   1.428       .  S
C831        C832   1.407       .  A
C832        C833   1.405       .  A
C832        H837   1.083       .  S
C833        C834   1.409       .  A
C834        N838   1.427       .  S
C835        C840   1.414       .  A
C835        C844   1.408       .  A
N836        O851   1.262       .  A
N836        O852   1.262       .  A
N838        O849   1.262       .  A
N838        O850   1.260       .  A
C840        N845   1.429       .  S
C840        C841   1.398       .  A
C841        C842   1.403       .  A
C841        H846   1.083       .  S
C842        C843   1.415       .  A
C843        N847   1.429       .  S
C843        C844   1.411       .  A
C844        H848   1.082       .  S
N845        O855   1.262       .  A
N845        O856   1.261       .  A
N847        O853   1.262       .  A
N847        O854   1.262       .  A
C857        C858   1.403       .  A
C857        C862   1.401       .  A
C857        H867   1.083       .  S
C858        C859   1.412       .  A
C858        C863   1.492       .  S
C859        N864   1.429       .  S
C859        C860   1.409       .  A
C860        C861   1.409       .  A
C860        H865   1.083       .  S
C861        C862   1.413       .  A
C862        N866   1.429       .  S
C863        C868   1.413   1_556  A
C863        C872   1.404   1_556  A
N864        O879   1.262       .  A
N864        O880   1.262       .  A
N866        O877   1.262       .  A
N866        O878   1.262       .  A
C868        N873   1.429   1_554  S
C868        C869   1.405       .  A
C869        C870   1.404       .  A
C869        H874   1.083       .  S
C870        C871   1.411       .  A
C871        N875   1.429       .  S
C871        C872   1.405       .  A
C872        H876   1.083   1_554  S
N873        O883   1.262       .  A
N873        O884   1.262       .  A
N875        O881   1.261       .  A
N875        O882   1.262       .  A
