geometry optimzed in LAMMPS
_audit_creation_date              2020-12-01 
_audit_creation_method            'lammps2cif' 
_symmetry_space_group_name_H-M    'P1' 
_symmetry_Int_Tables_number       1 
_symmetry_cell_setting            triclinic 
loop_ 
_symmetry_equiv_pos_as_xyz 
  x,y,z 
_cell_length_a                    29.48526129 
_cell_length_b                    29.581593217268818 
_cell_length_c                    29.773525165730895 
_cell_angle_alpha                 89.60411590772867 
_cell_angle_beta                  90.9918975841498 
_cell_angle_gamma                 92.94151787877716 
loop_ 
_atom_site_label 
_atom_site_type_symbol 
_atom_site_fract_x 
_atom_site_fract_y 
_atom_site_fract_z 
_atom_site_charge 
C1          C  0.59046133  0.87771676  0.75457443     0.03400
C2          C  0.60519195  0.84294529  0.72723446    -0.12700
C3          C  0.57363346  0.81534050  0.70260090     0.00900
C4          C  0.52670548  0.82332303  0.70632308    -0.11200
C5          C  0.51153562  0.85696121  0.73524457     0.03400
C6          C  0.54378707  0.88410439  0.75864376    -0.10700
H7          H  0.64112442  0.83722671  0.72561572     0.09000
H8          H  0.50166570  0.80153330  0.68888087     0.06600
H9          H  0.53253746  0.91076790  0.77996509     0.06400
C10         C  0.61868547  0.14977380  0.90645952     0.03400
C11         C  0.63955925  0.19278064  0.91430055    -0.12700
C12         C  0.61778882  0.22416759  0.94031408     0.00900
C13         C  0.57600036  0.21142651  0.95925831    -0.11200
C14         C  0.55357209  0.16934442  0.94950441     0.03400
C15         C  0.57520468  0.13845435  0.92326048    -0.10700
H16         H  0.67076290  0.20285587  0.89738199     0.09000
H17         H  0.55810275  0.23692788  0.97686729     0.06600
H18         H  0.55812017  0.10613673  0.91517477     0.06400
C19         C  0.86404907  0.75487836  0.69111028     0.03400
C20         C  0.82013766  0.74146688  0.70497395    -0.12700
C21         C  0.79060728  0.71616064  0.67599608     0.00900
C22         C  0.80476288  0.70594322  0.63227667    -0.11200
C23         C  0.84932200  0.71834527  0.61880453     0.03400
C24         C  0.87887972  0.74107691  0.64917025    -0.10700
H25         H  0.80855127  0.75177333  0.73751064     0.09000
H26         H  0.78134347  0.68845849  0.60906021     0.06600
H27         H  0.91292660  0.75154635  0.63875107     0.06400
C28         C  0.14752927  0.89678719  0.69715529     0.03400
C29         C  0.19019690  0.91486868  0.71248000    -0.12700
C30         C  0.22390398  0.92858188  0.68154589     0.00900
C31         C  0.21386072  0.92228055  0.63479500    -0.11200
C32         C  0.17105829  0.90356274  0.61919833     0.03400
C33         C  0.13809109  0.89237463  0.65082974    -0.10700
H34         H  0.19729958  0.91733297  0.74822277     0.09000
H35         H  0.24004901  0.93026514  0.61052402     0.06600
H36         H  0.10562709  0.87721735  0.63956147     0.06400
C37         C  0.62689268  0.72083337  0.45295568     0.03400
C38         C  0.67163237  0.71494564  0.44113076    -0.12700
C39         C  0.70431243  0.70718004  0.47452801     0.00900
C40         C  0.69203176  0.70541484  0.52022084    -0.11200
C41         C  0.64637073  0.70995373  0.53215018     0.03400
C42         C  0.61431709  0.71762018  0.49794948    -0.10700
H43         H  0.68127221  0.71796524  0.40621478     0.09000
H44         H  0.71749649  0.69930291  0.54591054     0.06600
H45         H  0.57932556  0.72289648  0.50628675     0.06400
C46         C  0.37437125  0.86543139  0.48373371     0.03400
C47         C  0.38586784  0.86563325  0.53033749    -0.12700
C48         C  0.36489389  0.89470370  0.55925439     0.00900
C49         C  0.33924630  0.92904287  0.54010147    -0.11200
C50         C  0.32222158  0.92540058  0.49617038     0.03400
C51         C  0.34027876  0.89360196  0.46784331    -0.10700
H52         H  0.40933381  0.84216763  0.54439269     0.09000
H53         H  0.32373262  0.95302802  0.56174362     0.06600
H54         H  0.32492663  0.88793424  0.43491460     0.06400
C55         C  0.64758315  0.65105641  0.95185689     0.03400
C56         C  0.63134365  0.66701134  0.90995865    -0.12700
C57         C  0.61469038  0.63621828  0.87672099     0.00900
C58         C  0.61042834  0.58980128  0.88736782    -0.11200
C59         C  0.62733364  0.57358111  0.92834302     0.03400
C60         C  0.64630582  0.60415970  0.95963886    -0.10700
H61         H  0.63491349  0.70269619  0.90175164     0.09000
H62         H  0.59946648  0.56585488  0.86162382     0.06600
H63         H  0.66155893  0.59102773  0.99012812     0.06400
C64         C  0.85417811  0.66854858  0.19847663     0.03400
C65         C  0.85695813  0.62205911  0.19025658    -0.12700
C66         C  0.87486187  0.59301811  0.22225976     0.00900
C67         C  0.88907174  0.61012550  0.26418981    -0.11200
C68         C  0.88339162  0.65564806  0.27495201     0.03400
C69         C  0.86729892  0.68523087  0.24143663    -0.10700
H70         H  0.84433604  0.60803224  0.15860336     0.09000
H71         H  0.89944556  0.58687379  0.29019716     0.06600
H72         H  0.86232878  0.72015418  0.24981741     0.06400
O73         O  0.61008569  0.28648189  0.89507916    -0.80600
O74         O  0.60035744  0.49649315  0.92431440    -0.65300
O75         O  0.63864424  0.37710814  0.90376792    -1.11900
C76         C  0.66666904  0.38311405  0.05924404     1.06300
O77         O  0.66845154  0.51149153  0.95431430    -0.78500
O78         O  0.72471964  0.44055410  0.96821348    -0.66100
Ni79       Ni  0.60719627  0.33969250  0.85957434     1.34900
C80         C  0.73485334  0.39923552  0.96851947     0.85000
O81         O  0.60975791  0.45264049  0.85077987    -0.79000
O82         O  0.60375381  0.38728899  0.81500041    -0.89300
C83         C  0.63167221  0.52479331  0.93659737     0.84600
O84         O  0.54879340  0.34739309  0.88471680    -0.67500
O85         O  0.68247108  0.42227449  0.04732252    -0.86800
C86         C  0.53303090  0.37734894  0.90970818     0.85500
C87         C  0.60732621  0.43023620  0.81497273     1.07000
H88         H  0.60112221  0.42822257  0.99007554     0.38800
O89         O  0.62864503  0.42515176  0.97336924    -1.09400
O90         O  0.70485630  0.36693564  0.96879861    -0.66100
Ni91       Ni  0.63939962  0.36292240  0.96803462     1.26300
O92         O  0.55488148  0.41471663  0.91952196    -0.66300
O93         O  0.64302902  0.35614231  0.03306274    -0.78600
C94         C  0.62627888  0.27268179  0.93201295     0.84800
O95         O  0.64446024  0.29861175  0.96194856    -0.65800
Ni96       Ni  0.67457169  0.46432894  0.99916802     1.27400
Ni97       Ni  0.61777767  0.43705852  0.91222142     1.26100
H98         H  0.66968680  0.38071835  0.89378166     0.39400
O99         O  0.33186031  0.90953392  0.62770827    -0.80600
O100        O  0.33059972  0.94235119  0.81577877    -0.65300
O101        O  0.37817616  0.92962656  0.69964972    -1.11900
C102        C  0.37819977  0.77605719  0.73981555     1.06300
O103        O  0.38898074  0.90589196  0.84337096    -0.78500
O104        O  0.44797004  0.86766346  0.78255337    -0.66100
Ni105      Ni  0.35403317  0.96444694  0.65273267     1.34900
C106        C  0.46217424  0.86201964  0.74271590     0.85000
O107        O  0.35533635  0.00305562  0.75205224    -0.79000
O108        O  0.37632772  0.01927723  0.68129508    -0.89300
C109        C  0.35699767  0.93299032  0.84842547     0.84600
O110        O  0.29341173  0.97202600  0.67179428    -0.67500
O111        O  0.38855026  0.79395240  0.77775261    -0.86800
C112        C  0.27109848  0.94471726  0.69691167     0.85500
C113        C  0.37240256  0.03036005  0.72244810     1.07000
H114        H  0.32283526  0.86030218  0.76273382     0.38800
O115        O  0.35342922  0.87322238  0.75929452    -1.09400
O116        O  0.43560113  0.85918123  0.70871781    -0.66100
Ni117      Ni  0.37134483  0.86409495  0.69832323     1.26300
O118        O  0.28958021  0.92912487  0.73265754    -0.66300
O119        O  0.36657854  0.79850385  0.70442364    -0.78600
C120        C  0.36084169  0.88709670  0.60867170     0.84800
O121        O  0.38419771  0.86113478  0.63351840    -0.65800
Ni122      Ni  0.38895230  0.85103713  0.80722227     1.27400
Ni123      Ni  0.35247047  0.93747071  0.75619937     1.26100
H124        H  0.40999873  0.93832995  0.70219629     0.39400
C125        C  0.11932799  0.69642574  0.40395488     0.03400
C126        C  0.07249843  0.68646335  0.40975202    -0.12700
C127        C  0.04745985  0.71305754  0.43765261     0.00900
C128        C  0.07044015  0.74815981  0.46225909    -0.11200
C129        C  0.11709993  0.75840183  0.45746151     0.03400
C130        C  0.14148707  0.73206643  0.42811234    -0.10700
H131        H  0.05530492  0.65927530  0.39085271     0.09000
H132        H  0.05152745  0.76925013  0.48400624     0.06600
H133        H  0.17693480  0.74091352  0.42186261     0.06400
C134        C  0.10770231  0.44346334  0.22552976     0.03400
C135        C  0.06128083  0.45114379  0.23000056    -0.12700
C136        C  0.02918501  0.41491519  0.22926064     0.00900
C137        C  0.04322543  0.37147571  0.21972331    -0.11200
C138        C  0.08919333  0.36343694  0.21271627     0.03400
C139        C  0.12151031  0.39990656  0.21550217    -0.10700
H140        H  0.05105477  0.48417480  0.24027374     0.09000
H141        H  0.01877089  0.34307116  0.22183536     0.06600
H142        H  0.15737736  0.39347907  0.21608506     0.06400
O143        O  0.97840897  0.73538776  0.46498754    -0.80600
O144        O  0.78181083  0.73079749  0.47028484    -0.65300
O145        O  0.89972173  0.68728353  0.47731425    -1.11900
C146        C  0.87631918  0.66549231  0.32268836     1.06300
O147        O  0.75939674  0.66525353  0.43897138    -0.78500
O148        O  0.82380138  0.60596755  0.41598145    -0.66100
Ni149      Ni  0.94270171  0.71826713  0.51521528     1.34900
C150        C  0.86395220  0.59222749  0.41500524     0.85000
O151        O  0.83821373  0.72131105  0.53953158    -0.79000
O152        O  0.90648952  0.70373257  0.56667594    -0.89300
C153        C  0.75092732  0.70096009  0.46059615     0.84600
O154        O  0.92089903  0.77796161  0.51336388    -0.67500
O155        O  0.83687196  0.65265098  0.33672159    -0.86800
C156        C  0.89883113  0.79514175  0.48127185     0.85500
C157        C  0.86509947  0.71286190  0.57227097     1.07000
H158        H  0.84252751  0.72833644  0.39643859     0.38800
O159        O  0.84523368  0.70028134  0.41286747    -1.09400
O160        O  0.89885101  0.61945682  0.41213910    -0.66100
Ni161      Ni  0.90741675  0.68558193  0.41296825     1.26300
O162        O  0.86565169  0.77279740  0.46242869    -0.66300
O163        O  0.90836252  0.68321135  0.34788043    -0.78600
C164        C  0.99721074  0.70752302  0.44037031     0.84800
O165        O  0.97273150  0.67841554  0.41768151    -0.65800
Ni166      Ni  0.80057220  0.65928297  0.38918769     1.27400
Ni167      Ni  0.84158828  0.71127241  0.47543052     1.26100
H168        H  0.89628331  0.65656980  0.48844413     0.39400
C169        C  0.84431223  0.33679140  0.97633447     0.03400
C170        C  0.86021889  0.35245411  0.01877138    -0.12700
C171        C  0.83768867  0.38567069  0.04128310     0.00900
C172        C  0.80054407  0.40511286  0.01950336    -0.11200
C173        C  0.78209519  0.38789917  0.97917479     0.03400
C174        C  0.80389374  0.35308407  0.95763494    -0.10700
H175        H  0.89038684  0.33901779  0.03399629     0.09000
H176        H  0.78266876  0.43118726  0.03612897     0.06600
H177        H  0.78957773  0.33871897  0.92682793     0.06400
C178        C  0.13206896  0.23008318  0.98156355     0.03400
C179        C  0.17298380  0.21931352  0.96126587    -0.12700
C180        C  0.21081620  0.20925646  0.98819911     0.00900
C181        C  0.20662861  0.20901355  0.03518198    -0.11200
C182        C  0.16519189  0.21772507  0.05579490     0.03400
C183        C  0.12843720  0.22903832  0.02863353    -0.10700
H184        H  0.17556812  0.21985454  0.92501065     0.09000
H185        H  0.23571116  0.20055708  0.05576473     0.06600
H186        H  0.09631412  0.23558213  0.04388099     0.06400
O187        O  0.93137552  0.32110295  0.24443025    -0.80600
O188        O  0.90674143  0.52104644  0.22548416    -0.65300
O189        O  0.87825927  0.39566178  0.24287315    -1.11900
C190        C  0.84986174  0.39992014  0.08801681     1.06300
O191        O  0.83831617  0.52529741  0.19435616    -0.78500
O192        O  0.78778035  0.44493113  0.17993035    -0.66100
Ni193      Ni  0.91167890  0.36402060  0.28662732     1.34900
C194        C  0.78031026  0.40216694  0.17910403     0.85000
O195        O  0.90487598  0.47171246  0.29885520    -0.79000
O196        O  0.89326234  0.40490909  0.33250920    -0.89300
C197        C  0.87373229  0.54411548  0.21306429     0.84600
O198        O  0.96934952  0.39543134  0.27825004    -0.67500
O199        O  0.83207580  0.43626957  0.10037047    -0.86800
C200        C  0.98264256  0.42004932  0.24537593     0.85500
C201        C  0.89482798  0.44810740  0.33335700     1.07000
H202        H  0.91026698  0.45487049  0.15768016     0.38800
O203        O  0.88338175  0.44661485  0.17460730    -1.09400
O204        O  0.81226891  0.37479684  0.17835436    -0.66100
Ni205      Ni  0.87808015  0.38231977  0.17943676     1.26300
O206        O  0.95707707  0.44749231  0.22562473    -0.66300
O207        O  0.87438973  0.37583905  0.11436664    -0.78600
C208        C  0.91076432  0.29925797  0.21299377     0.84800
O209        O  0.88047047  0.31685714  0.18781475    -0.65800
Ni210      Ni  0.83570190  0.47829066  0.14903705     1.27400
Ni211      Ni  0.89431760  0.45860207  0.23615077     1.26100
H212        H  0.84717564  0.39343354  0.25276264     0.39400
C213        C  0.35871302  0.25769293  0.20335852     0.03400
C214        C  0.37276619  0.24863051  0.15967391    -0.12700
C215        C  0.34763991  0.21897207  0.13144141     0.00900
C216        C  0.30821347  0.19664254  0.14781099    -0.11200
C217        C  0.29369981  0.20396907  0.19205279     0.03400
C218        C  0.31868239  0.23548655  0.21947425    -0.10700
H219        H  0.40410898  0.26482185  0.14761464     0.09000
H220        H  0.28894733  0.17328867  0.12601495     0.06600
H221        H  0.30746560  0.24222177  0.25310266     0.06400
C222        C  0.65637364  0.35670751  0.18338744     0.03400
C223        C  0.64581371  0.35733896  0.13693633    -0.12700
C224        C  0.67872075  0.37083215  0.10593750     0.00900
C225        C  0.72261981  0.38329152  0.12164006    -0.11200
C226        C  0.73383659  0.38433535  0.16747031     0.03400
C227        C  0.70058708  0.37066758  0.19881395    -0.10700
H228        H  0.61129318  0.34945013  0.12525905     0.09000
H229        H  0.74797067  0.39473303  0.09778839     0.06600
H230        H  0.70871280  0.37121631  0.23442292     0.06400
C231        C  0.34375708  0.95769526  0.97316174     0.03400
C232        C  0.34794833  0.00523050  0.97267535    -0.12700
C233        C  0.35346213  0.02889325  0.93235461     0.00900
C234        C  0.35499861  0.00479250  0.89196181    -0.11200
C235        C  0.35340991  0.95720929  0.89173749     0.03400
C236        C  0.34796798  0.93360364  0.93280528    -0.10700
H237        H  0.34468188  0.02384316  0.00361011     0.09000
H238        H  0.35740926  0.02309929  0.86061883     0.06600
H239        H  0.34469246  0.89695915  0.93308557     0.06400
C240        C  0.22171004  0.96094706  0.25886479     0.03400
C241        C  0.20417948  0.94868298  0.30119733    -0.12700
C242        C  0.17540765  0.97774328  0.32317966     0.00900
C243        C  0.16613847  0.01982539  0.30323029    -0.11200
C244        C  0.18408618  0.03245645  0.26129356     0.03400
C245        C  0.21070157  0.00228889  0.23901666    -0.10700
H246        H  0.21312603  0.91716847  0.31695032     0.09000
H247        H  0.14600647  0.04334969  0.32101676     0.06600
H248        H  0.22470843  0.01183992  0.20665022     0.06400
O249        O  0.49763018  0.18048276  0.00059834    -0.80600
O250        O  0.29016327  0.22150967  0.98400998    -0.65300
O251        O  0.40364413  0.16607604  0.99706188    -1.11900
C252        C  0.38817420  0.14563407  0.84137300     1.06300
O253        O  0.25864803  0.16736566  0.94086993    -0.78500
O254        O  0.31703729  0.09789622  0.92879086    -0.66100
Ni255      Ni  0.44867566  0.19553019  0.03630097     1.34900
C256        C  0.35464462  0.07872978  0.93157813     0.85000
O257        O  0.33709986  0.19849131  0.05473966    -0.79000
O258        O  0.40695363  0.21494646  0.07986002    -0.89300
C259        C  0.25537665  0.19950935  0.96890913     0.84600
O260        O  0.44875769  0.25092822  0.00375420    -0.67500
O261        O  0.34662298  0.13796879  0.85157696    -0.86800
C262        C  0.41661778  0.27203114  0.98599542     0.85500
C263        C  0.36464069  0.21012432  0.08596253     1.07000
H264        H  0.35673806  0.21719138  0.91459984     0.38800
O265        O  0.35410781  0.18784437  0.92901251    -1.09400
O266        O  0.39322130  0.10047554  0.93129256    -0.66100
Ni267      Ni  0.41321739  0.16423654  0.93266655     1.26300
O268        O  0.37519237  0.25622934  0.98602383    -0.66300
O269        O  0.41843800  0.16250247  0.86847419    -0.78600
C270        C  0.50593843  0.16272489  0.96346498     0.84800
O271        O  0.47509558  0.14568685  0.93717476    -0.65800
Ni272      Ni  0.30621029  0.15363925  0.89857809     1.27400
Ni273      Ni  0.34681040  0.19476043  0.99161870     1.26100
H274        H  0.39772101  0.13570774  0.00835814     0.39400
C275        C  0.22729744  0.16957110  0.45819680     0.03400
C276        C  0.20967580  0.19184495  0.42034315    -0.12700
C277        C  0.17506934  0.17063388  0.39387128     0.00900
C278        C  0.15958739  0.12637935  0.40431590    -0.11200
C279        C  0.17846106  0.10285101  0.44075958     0.03400
C280        C  0.21085217  0.12523182  0.46849277    -0.10700
H281        H  0.22394505  0.22487439  0.41058019     0.09000
H282        H  0.13522972  0.10909540  0.38182526     0.06600
H283        H  0.22424151  0.10767686  0.49750960     0.06400
C284        C  0.39492759  0.15744559  0.71741921     0.03400
C285        C  0.38998066  0.11198691  0.70418081    -0.12700
C286        C  0.38700413  0.07724072  0.73624388     0.00900
C287        C  0.39347535  0.08858875  0.78177324    -0.11200
C288        C  0.39964540  0.13405501  0.79529625     0.03400
C289        C  0.40085786  0.16842902  0.76280660    -0.10700
H290        H  0.38285102  0.10432489  0.66911276     0.09000
H291        H  0.39061373  0.06237952  0.80700486     0.06600
H292        H  0.40036593  0.20351076  0.77302833     0.06400
O293        O  0.18886329  0.18452821  0.12311166    -0.80600
O294        O  0.19206617  0.18547362  0.31907606    -0.65300
O295        O  0.14381830  0.16834679  0.20208598    -1.11900
C296        C  0.10346919  0.31691210  0.22021455     1.06300
O297        O  0.12378719  0.20357252  0.34082798    -0.78500
O298        O  0.05907461  0.21144926  0.27126629    -0.66100
Ni299      Ni  0.17696656  0.13375700  0.16196848     1.34900
C300        C  0.04410463  0.21364996  0.23091810     0.85000
O301        O  0.18610415  0.11265690  0.26670987    -0.79000
O302        O  0.16803360  0.08136579  0.20001654    -0.89300
C303        C  0.16335686  0.18924850  0.34957806     0.84600
O304        O  0.23671602  0.14499674  0.18642840    -0.67500
O305        O  0.09102234  0.29942800  0.25789557    -0.86800
C306        C  0.25080989  0.18042873  0.20702555     0.85500
C307        C  0.17829968  0.07807922  0.24171113     1.07000
H308        H  0.17722398  0.25601135  0.25915285     0.38800
O309        O  0.15131365  0.23492699  0.25506835    -1.09400
O310        O  0.07023074  0.22310936  0.19804358    -0.66100
Ni311      Ni  0.13596405  0.23205772  0.19288259     1.26300
O312        O  0.22767579  0.19687403  0.23793539    -0.66300
O313        O  0.12644231  0.29633189  0.19086603    -0.78600
C314        C  0.16006895  0.20951271  0.10481913     0.84800
O315        O  0.12890753  0.22665519  0.12795906    -0.65800
Ni316      Ni  0.10742114  0.25000424  0.29664525     1.27400
Ni317      Ni  0.16938719  0.17495843  0.26053781     1.26100
H318        H  0.11431485  0.15304008  0.20491144     0.39400
C319        C  0.90733449  0.90678069  0.41488649     0.03400
C320        C  0.95200603  0.92155811  0.42607834    -0.12700
C321        C  0.97949845  0.89663317  0.45481306     0.00900
C322        C  0.96051650  0.85683768  0.47462947    -0.11200
C323        C  0.91517882  0.84085336  0.46425061     0.03400
C324        C  0.88887591  0.86619872  0.43390815    -0.10700
H325        H  0.96587714  0.95265392  0.41101087     0.09000
H326        H  0.98201852  0.83692989  0.49601350     0.06600
H327        H  0.85475733  0.85412391  0.42448682     0.06400
C328        C  0.91955812  0.17808571  0.24459388     0.03400
C329        C  0.89890178  0.21660158  0.22724364    -0.12700
C330        C  0.92545634  0.25235330  0.20800287     0.00900
C331        C  0.97258693  0.24722040  0.20342642    -0.11200
C332        C  0.99404720  0.21020241  0.22286508     0.03400
C333        C  0.96711348  0.17565767  0.24296965    -0.10700
H334        H  0.86319675  0.22074919  0.23316667     0.09000
H335        H  0.99354041  0.27535925  0.19060344     0.06600
H336        H  0.98332467  0.14761149  0.25912805     0.06400
O337        O  0.24880365  0.91242229  0.51939877    -0.80600
O338        O  0.05329460  0.89940245  0.49273233    -0.65300
O339        O  0.17861504  0.89708993  0.46522920    -1.11900
C340        C  0.16551532  0.05439715  0.44732963     1.06300
O341        O  0.04654148  0.93414350  0.42693918    -0.78500
O342        O  0.11757486  0.97150755  0.37732447    -0.66100
Ni343      Ni  0.21621443  0.85978738  0.49910467     1.34900
C344        C  0.15958653  0.96864447  0.36945664     0.85000
O345        O  0.11108256  0.83164117  0.48837350    -0.79000
O346        O  0.18106706  0.80728556  0.47816887    -0.89300
C347        C  0.02872527  0.91118148  0.45930709     0.84600
O348        O  0.18770198  0.85939885  0.55612664    -0.67500
O349        O  0.12531207  0.04194880  0.43408468    -0.86800
C350        C  0.16319138  0.88957680  0.57113644     0.85500
C351        C  0.13780606  0.80119041  0.47650679     1.07000
H352        H  0.12087579  0.97537460  0.50220979     0.38800
O353        O  0.12590948  0.96053797  0.47405100    -1.09400
O354        O  0.18932977  0.96318941  0.40017581    -0.66100
Ni355      Ni  0.18975109  0.96177627  0.46506385     1.26300
O356        O  0.13262408  0.90690996  0.54622755    -0.66300
O357        O  0.19461666  0.02728790  0.46357252    -0.78600
C358        C  0.27376072  0.93371872  0.49177384     0.84800
O359        O  0.25544513  0.95786657  0.46154423    -0.65800
Ni360      Ni  0.08768340  0.98720976  0.43132578     1.27400
Ni361      Ni  0.11733992  0.89675947  0.48216244     1.26100
H362        H  0.17916099  0.88662738  0.43456829     0.39400
C363        C  0.40907447  0.39020753  0.93496810     0.03400
C364        C  0.45417982  0.39983569  0.92230464    -0.12700
C365        C  0.48674588  0.36783624  0.92782693     0.00900
C366        C  0.47415842  0.32613626  0.94886235    -0.11200
C367        C  0.42908087  0.31646635  0.96384676     0.03400
C368        C  0.39647704  0.34881529  0.95587543    -0.10700
H369        H  0.46338863  0.43186251  0.90604788     0.09000
H370        H  0.49949764  0.30113414  0.95323625     0.06600
H371        H  0.36157132  0.34196413  0.96567261     0.06400
C372        C  0.38929014  0.65960632  0.78623552     0.03400
C373        C  0.36827123  0.69951870  0.77358776    -0.12700
C374        C  0.38581904  0.72727913  0.73870264     0.00900
C375        C  0.42458197  0.71439252  0.71680388    -0.11200
C376        C  0.44772318  0.67602031  0.73100283     0.03400
C377        C  0.42857421  0.64765859  0.76388667    -0.10700
H378        H  0.34079725  0.71113396  0.79352471     0.09000
H379        H  0.44015205  0.73795583  0.69288648     0.06600
H380        H  0.44567659  0.61753236  0.77390772     0.06400
C381        C  0.83615089  0.46966176  0.44268855     0.03400
C382        C  0.84409653  0.51660921  0.44759569    -0.12700
C383        C  0.86874364  0.54227725  0.41586453     0.00900
C384        C  0.88838167  0.51955911  0.37989586    -0.11200
C385        C  0.88176112  0.47185292  0.37502845     0.03400
C386        C  0.85560327  0.44750665  0.40696397    -0.10700
H387        H  0.82793334  0.53381435  0.47460466     0.09000
H388        H  0.90598208  0.53925331  0.35422197     0.06600
H389        H  0.84747175  0.41169428  0.40231394     0.06400
C390        C  0.64860842  0.45838092  0.69831997     0.03400
C391        C  0.64712467  0.50569961  0.69762627    -0.12700
C392        C  0.62863829  0.52850488  0.73328341     0.00900
C393        C  0.61127034  0.50323733  0.77008395    -0.11200
C394        C  0.61349117  0.45551145  0.77179628     0.03400
C395        C  0.63117847  0.43338925  0.73483481    -0.10700
H396        H  0.66236849  0.52491029  0.67010544     0.09000
H397        H  0.59907154  0.52101384  0.79868911     0.06600
H398        H  0.63519738  0.39718642  0.73599867     0.06400
O399        O  0.50350931  0.69118560  0.67856782    -0.80600
O400        O  0.71206421  0.72798701  0.68144038    -0.65300
O401        O  0.59404936  0.66897640  0.67374990    -1.11900
C402        C  0.62106989  0.64788296  0.82887258     1.06300
O403        O  0.73721803  0.66514263  0.71172899    -0.78500
O404        O  0.67427853  0.59662437  0.73545039    -0.66100
Ni405      Ni  0.54887336  0.69316241  0.63469556     1.34900
C406        C  0.63414644  0.57850572  0.73540214     0.85000
O407        O  0.65807700  0.71165154  0.61194758    -0.79000
O408        O  0.58841273  0.69664253  0.58474455    -0.89300
C409        C  0.74437000  0.70269084  0.69085310     0.84600
O410        O  0.55986305  0.75521577  0.65112118    -0.67500
O411        O  0.66071384  0.64075274  0.81449245    -0.86800
C412        C  0.58821599  0.77434789  0.67845461     0.85500
C413        C  0.63037233  0.70584252  0.57920795     1.07000
H414        H  0.65159682  0.71635808  0.75419935     0.38800
O415        O  0.64958023  0.68815639  0.73791634    -1.09400
O416        O  0.59889435  0.60138001  0.73854921    -0.66100
Ni417      Ni  0.58805342  0.66559128  0.73874909     1.26300
O418        O  0.62669037  0.75812936  0.68807067    -0.66300
O419        O  0.58847631  0.66189300  0.80396674    -0.78600
C420        C  0.49420870  0.67045158  0.71469639     0.84800
O421        O  0.52358918  0.64906257  0.73740105    -0.65800
Ni422      Ni  0.69609783  0.65295580  0.76162132     1.27400
Ni423      Ni  0.65271455  0.70035027  0.67557509     1.26100
H424        H  0.59851869  0.63886897  0.66285307     0.39400
C425        C  0.67767690  0.39813160  0.59142150    -0.05100
C426        C  0.72375149  0.41299038  0.58749203     0.09000
C427        C  0.74663557  0.43469599  0.62413521    -0.02500
C428        C  0.72246507  0.44547576  0.66249861    -0.00800
C429        C  0.67505657  0.43635462  0.66362388    -0.04400
C430        C  0.65296306  0.41088761  0.62903708     0.02600
C431        C  0.74531169  0.41608277  0.54252116     0.09500
C432        C  0.79402824  0.45006814  0.62065484     0.35300
C433        C  0.60426390  0.40145035  0.63027488     0.38800
C434        C  0.73102386  0.44934262  0.51189308    -0.04800
C435        C  0.75868825  0.46270987  0.47580176     0.02400
C436        C  0.80233089  0.44554993  0.47210150    -0.04400
C437        C  0.81405299  0.40830076  0.49920333    -0.00600
C438        C  0.78491969  0.39296668  0.53388764    -0.03200
C439        C  0.68965228  0.47258568  0.51949964     0.36100
C440        C  0.85676667  0.38719521  0.49298684     0.39700
C441        C  0.74263585  0.49502082  0.44299379     0.38800
C442        C  0.79682133  0.35536384  0.56249635     0.35800
C443        C  0.65499322  0.37334286  0.55490115     0.36400
C444        C  0.74583503  0.46874310  0.69968338     0.39700
N445        N  0.72976841  0.52062680  0.41675037    -0.38400
N446        N  0.65668618  0.49102631  0.52578470    -0.40000
N447        N  0.89067140  0.37005223  0.48773598    -0.37700
N448        N  0.80618774  0.32527672  0.58529160    -0.40100
N449        N  0.83172477  0.46248788  0.61765077    -0.39900
N450        N  0.76437923  0.48744127  0.72925896    -0.37500
N451        N  0.56532222  0.39435395  0.63113599    -0.38600
N452        N  0.63693788  0.35382889  0.52555664    -0.40200
C453        C  0.35566440  0.47836575  0.86540884    -0.05100
C454        C  0.34944225  0.51114865  0.89876142     0.09000
C455        C  0.34995469  0.49840602  0.94451859    -0.02500
C456        C  0.36311086  0.45481611  0.95702102    -0.00800
C457        C  0.37594926  0.42456227  0.92368304    -0.04400
C458        C  0.36841541  0.43494060  0.87793205     0.02600
C459        C  0.35296575  0.55973364  0.88504575     0.09500
C460        C  0.34138259  0.53149929  0.97859031     0.35300
C461        C  0.37883794  0.40262261  0.84356776     0.38800
C462        C  0.31812160  0.57786624  0.85865850    -0.04800
C463        C  0.32868400  0.61320894  0.82791908     0.02400
C464        C  0.37375490  0.63204426  0.82577862    -0.04400
C465        C  0.40590905  0.61986060  0.85906890    -0.00600
C466        C  0.39602095  0.58278416  0.88762900    -0.03200
C467        C  0.27257248  0.55707136  0.86027773     0.36100
C468        C  0.45034174  0.64341218  0.86197722     0.39700
C469        C  0.29417159  0.62692785  0.79611671     0.38800
C470        C  0.43179108  0.56526012  0.91592437     0.35800
C471        C  0.35459464  0.49094581  0.81814940     0.36400
C472        C  0.36762001  0.44259735  0.00405844     0.39700
N473        N  0.26642594  0.63773690  0.77085548    -0.38400
N474        N  0.23619981  0.54053276  0.86180335    -0.40000
N475        N  0.48591313  0.66183030  0.86392830    -0.37700
N476        N  0.46039673  0.55107671  0.93818170    -0.40100
N477        N  0.33485613  0.55797830  0.00585348    -0.39900
N478        N  0.37110423  0.43263551  0.04157040    -0.37500
N479        N  0.38740967  0.37720444  0.81597507    -0.38600
N480        N  0.35407389  0.50122666  0.78057309    -0.40200
C481        C  0.83659379  0.00111819  0.37010186    -0.05100
C482        C  0.86068545  0.01254549  0.33058664     0.09000
C483        C  0.89019621  0.98105248  0.31313294    -0.02500
C484        C  0.90081069  0.94237238  0.33844068    -0.00800
C485        C  0.88236462  0.93495200  0.38159827    -0.04400
C486        C  0.84775879  0.96263300  0.39582880     0.02600
C487        C  0.86288903  0.06032507  0.31243542     0.09500
C488        C  0.91259188  0.99020017  0.27075079     0.35300
C489        C  0.82653183  0.95387088  0.43874905     0.38800
C490        C  0.88726610  0.09461621  0.33719272    -0.04800
C491        C  0.90200889  0.13538074  0.31593207     0.02400
C492        C  0.89299505  0.14208398  0.26969840    -0.04400
C493        C  0.86315499  0.11096238  0.24677750    -0.00600
C494        C  0.84804194  0.07013370  0.26812501    -0.03200
C495        C  0.89959109  0.08707095  0.38394203     0.36100
C496        C  0.84989355  0.12001872  0.20061139     0.39700
C497        C  0.92773696  0.17003184  0.34129153     0.38800
C498        C  0.81917611  0.03724759  0.24379805     0.35800
C499        C  0.80267042  0.03075514  0.38583985     0.36400
C500        C  0.93386863  0.91218263  0.32175125     0.39700
N501        N  0.94814095  0.19773436  0.36150818    -0.38400
N502        N  0.90903305  0.08123343  0.42135303    -0.40000
N503        N  0.83919879  0.12772073  0.16387906    -0.37700
N504        N  0.79622674  0.01109997  0.22409494    -0.40100
N505        N  0.93013100  0.99743576  0.23678459    -0.39900
N506        N  0.96051687  0.88840089  0.30849693    -0.37500
N507        N  0.80954957  0.94689758  0.47302839    -0.38600
N508        N  0.77565779  0.05440932  0.39858294    -0.40200
C509        C  0.33312041  0.17949728  0.53172699    -0.05100
C510        C  0.32492762  0.21869696  0.55649752     0.09000
C511        C  0.29114846  0.24753465  0.54163900    -0.02500
C512        C  0.25997028  0.23297853  0.50761144    -0.00800
C513        C  0.26482151  0.19082874  0.48629785    -0.04400
C514        C  0.30382357  0.16623411  0.49596193     0.02600
C515        C  0.34237347  0.22160740  0.60370921     0.09500
C516        C  0.28599040  0.28992052  0.56476155     0.35300
C517        C  0.31218245  0.12537450  0.47125226     0.38800
C518        C  0.38933944  0.22829538  0.61305116    -0.04800
C519        C  0.40746279  0.21198943  0.65381808     0.02400
C520        C  0.37815715  0.19113526  0.68542247    -0.04400
C521        C  0.33070877  0.19276522  0.67961662    -0.00600
C522        C  0.31272371  0.20695236  0.63831838    -0.03200
C523        C  0.41902406  0.24829010  0.57926350     0.36100
C524        C  0.30053308  0.17467408  0.71420119     0.39700
C525        C  0.45608855  0.21336922  0.66197785     0.38800
C526        C  0.26410110  0.20126522  0.62981312     0.35800
C527        C  0.36884912  0.15020638  0.54585701     0.36400
C528        C  0.22070193  0.25924204  0.49817351     0.39700
N529        N  0.49488897  0.21440331  0.66877604    -0.38400
N530        N  0.44272694  0.26443061  0.55233779    -0.40000
N531        N  0.27661536  0.16011255  0.74174944    -0.37700
N532        N  0.22540290  0.19660738  0.62288010    -0.40100
N533        N  0.28220802  0.32362162  0.58351166    -0.39900
N534        N  0.18936164  0.28035009  0.49104874    -0.37500
N535        N  0.31846873  0.09244261  0.45206093    -0.38600
N536        N  0.39719585  0.12678127  0.55722301    -0.40200
C537        C  0.31764234  0.93865217  0.18386278    -0.05100
C538        C  0.29506730  0.90761296  0.15411099     0.09000
C539        C  0.25603203  0.88243754  0.16902706    -0.02500
C540        C  0.23444624  0.89525516  0.20866061    -0.00800
C541        C  0.25263080  0.93241481  0.23367499    -0.04400
C542        C  0.29670228  0.95036493  0.22407389     0.02600
C543        C  0.30475041  0.91098205  0.10475375     0.09500
C544        C  0.23545200  0.84690558  0.14096771     0.35300
C545        C  0.31851790  0.98387290  0.25375651     0.38800
C546        C  0.34610564  0.89748765  0.08696664    -0.04800
C547        C  0.35863637  0.91074723  0.04287420     0.02400
C548        C  0.32858620  0.93505327  0.01556810    -0.04400
C549        C  0.28514147  0.94371559  0.03166424    -0.00600
C550        C  0.27390039  0.93330362  0.07639272    -0.03200
C551        C  0.37615186  0.87110261  0.11442542     0.36100
C552        C  0.25248299  0.96505407  0.00241951     0.39700
C553        C  0.40330647  0.90175382  0.02661208     0.38800
C554        C  0.23162375  0.94836053  0.09401121     0.35800
C555        C  0.35989276  0.96211166  0.17105809     0.36400
C556        C  0.19157086  0.87312893  0.22141591     0.39700
N557        N  0.43908886  0.89480071  0.01374954    -0.38400
N558        N  0.40012466  0.84982164  0.13617262    -0.40000
N559        N  0.22655852  0.98192031  0.97890392    -0.37700
N560        N  0.19805614  0.96037257  0.10829668    -0.40100
N561        N  0.21886235  0.81866559  0.11849925    -0.39900
N562        N  0.15744890  0.85535121  0.23183426    -0.37500
N563        N  0.33600174  0.01041369  0.27759333    -0.38600
N564        N  0.39367129  0.98077985  0.16093076    -0.40200
C565        C  0.55190341  0.29150967  0.22311866    -0.05100
C566        C  0.53001423  0.32537631  0.24666551     0.09000
C567        C  0.55505541  0.36556868  0.25891027    -0.02500
C568        C  0.59924466  0.37458381  0.24209588    -0.00800
C569        C  0.61893809  0.34263686  0.21429202    -0.04400
C570        C  0.59657048  0.29975663  0.20806557     0.02600
C571        C  0.47927530  0.32109494  0.25103859     0.09500
C572        C  0.53423320  0.39870532  0.28643983     0.35300
C573        C  0.61846672  0.26535588  0.18286691     0.38800
C574        C  0.45871718  0.28665697  0.27808794    -0.04800
C575        C  0.41395370  0.26983383  0.26801473     0.02400
C576        C  0.38986918  0.28800318  0.23126962    -0.04400
C577        C  0.40649632  0.32936408  0.21217691    -0.00600
C578        C  0.45177436  0.34500216  0.22068273    -0.03200
C579        C  0.48499375  0.26613447  0.31359483     0.36100
C580        C  0.37833412  0.35301787  0.18024314     0.39700
C581        C  0.39418207  0.23185322  0.29311859     0.38800
C582        C  0.47127234  0.38256412  0.19462630     0.35800
C583        C  0.52715246  0.24969557  0.21055763     0.36400
C584        C  0.62275379  0.41806200  0.25031533     0.39700
N585        N  0.37802792  0.20186869  0.31345354    -0.38400
N586        N  0.50589044  0.24975546  0.34204661    -0.40000
N587        N  0.35575832  0.37192206  0.15491325    -0.37700
N588        N  0.48688531  0.41245465  0.17377708    -0.40100
N589        N  0.51770091  0.42521618  0.30844407    -0.39900
N590        N  0.64160653  0.45275001  0.25679344    -0.37500
N591        N  0.63616698  0.23833838  0.16249870    -0.38600
N592        N  0.50748075  0.21641282  0.20025327    -0.40200
C593        C  0.02949344  0.29319125  0.94680387    -0.05100
C594        C  0.00138532  0.25777651  0.92795955     0.09000
C595        C  0.01998512  0.21604461  0.91814966    -0.02500
C596        C  0.06498493  0.20802558  0.93181318    -0.00800
C597        C  0.09145259  0.24200604  0.95477761    -0.04400
C598        C  0.07447017  0.28539503  0.95982208     0.02600
C599        C  0.95120490  0.26284255  0.92679908     0.09500
C600        C  0.99165344  0.18036303  0.89721348     0.35300
C601        C  0.10220670  0.32114737  0.98158452     0.38800
C602        C  0.93255807  0.29559598  0.89835690    -0.04800
C603        C  0.89354938  0.31740389  0.91166651     0.02400
C604        C  0.87195176  0.30425598  0.95216410    -0.04400
C605        C  0.88510070  0.26467353  0.97468988    -0.00600
C606        C  0.92529698  0.24452131  0.96261720    -0.03200
C607        C  0.95658556  0.31009626  0.85825774     0.36100
C608        C  0.85955469  0.24725655  0.01286124     0.39700
C609        C  0.87933896  0.35657698  0.88662968     0.38800
C610        C  0.94247240  0.20817086  0.98997732     0.35800
C611        C  0.01090361  0.33650437  0.95671527     0.36400
C612        C  0.08257063  0.16364366  0.92576522     0.39700
N613        N  0.86834080  0.38798008  0.86662619    -0.38400
N614        N  0.97585893  0.32144202  0.82623720    -0.40000
N615        N  0.83937188  0.23339989  0.04343481    -0.37700
N616        N  0.95635327  0.17914212  0.01162181    -0.40100
N617        N  0.96889717  0.15176855  0.88085134    -0.39900
N618        N  0.09651706  0.12816164  0.92100941    -0.37500
N619        N  0.12397384  0.34971170  0.99918891    -0.38600
N620        N  0.99584839  0.37087119  0.96465482    -0.40200
C621        C  0.13532677  0.63336136  0.29690293    -0.05100
C622        C  0.16964134  0.60404726  0.31008482     0.09000
C623        C  0.19590975  0.61394462  0.34930288    -0.02500
C624        C  0.18123676  0.64596288  0.38010185    -0.00800
C625        C  0.14329174  0.67145348  0.36908959    -0.04400
C626        C  0.12424608  0.66867214  0.32530652     0.02600
C627        C  0.16964616  0.55800328  0.28953834     0.09500
C628        C  0.23506985  0.58785991  0.35992293     0.35300
C629        C  0.09140697  0.70079199  0.31044706     0.46400
C630        C  0.17712863  0.55259095  0.24308164    -0.04800
C631        C  0.16087158  0.51250689  0.22135415     0.02400
C632        C  0.13999253  0.47714993  0.24665448    -0.04400
C633        C  0.14098362  0.47928475  0.29393482    -0.00600
C634        C  0.15353425  0.52025077  0.31527215    -0.03200
C635        C  0.19806148  0.58951629  0.21726304     0.36100
C636        C  0.12538352  0.44022785  0.32036606     0.39700
C637        C  0.16357768  0.50831165  0.17305169     0.38800
C638        C  0.14481263  0.52465984  0.36288065     0.35800
C639        C  0.10787720  0.62458559  0.25666595     0.36400
C640        C  0.20256540  0.64953203  0.42426620     0.39700
N641        N  0.16597993  0.50480161  0.13448981    -0.38400
N642        N  0.21451546  0.61905147  0.19652781    -0.40000
N643        N  0.11334994  0.40899993  0.34144834    -0.37700
N644        N  0.13763802  0.52833498  0.40074403    -0.40100
N645        N  0.26627772  0.56701535  0.36844901    -0.39900
N646        N  0.21949821  0.65218219  0.45957693    -0.37500
N647        N  0.06542412  0.72657865  0.29864116    -0.38600
N648        N  0.08572070  0.61761079  0.22475373    -0.40200
C649        C  0.69572836  0.68271797  0.06591157    -0.05100
C650        C  0.73515999  0.70971302  0.05498183     0.09000
C651        C  0.73911009  0.72694157  0.01067208    -0.02500
C652        C  0.70928403  0.71010042  0.97614194    -0.00800
C653        C  0.67148615  0.68061708  0.98680536    -0.04400
C654        C  0.66245333  0.67175787  0.03269501     0.02600
C655        C  0.77367238  0.71544728  0.08902982     0.09500
C656        C  0.77481566  0.76072690  0.00029056     0.35300
C657        C  0.61988511  0.64871020  0.04553288     0.38800
C658        C  0.81604267  0.69670656  0.08113569    -0.04800
C659        C  0.84684558  0.69043407  0.11715726     0.02400
C660        C  0.83309686  0.69645471  0.16198163    -0.04400
C661        C  0.79352034  0.72046284  0.16924177    -0.00600
C662        C  0.76568260  0.73254348  0.13228375    -0.03200
C663        C  0.82676443  0.68017503  0.03700671     0.36100
C664        C  0.77874522  0.72915887  0.21436768     0.39700
C665        C  0.89160535  0.67441930  0.10852268     0.38800
C666        C  0.72674329  0.75959429  0.13904251     0.35800
C667        C  0.69067160  0.66286636  0.11041772     0.36400
C668        C  0.72002212  0.72037789  0.92975487     0.39700
N669        N  0.92734106  0.66171757  0.10187069    -0.38400
N670        N  0.83556950  0.66700497  0.00185698    -0.40000
N671        N  0.76651276  0.73610975  0.25027992    -0.37700
N672        N  0.69564389  0.78121450  0.14412812    -0.40100
N673        N  0.80315502  0.78781442  0.99185042    -0.39900
N674        N  0.72876341  0.72842713  0.89270580    -0.37500
N675        N  0.58602176  0.63036330  0.05590195    -0.38600
N676        N  0.68664267  0.64686759  0.14580578    -0.40200
C677        C  0.54609149  0.80100667  0.40795519    -0.05100
C678        C  0.50850644  0.77035569  0.39927374     0.09000
C679        C  0.51608598  0.72438618  0.39149481    -0.02500
C680        C  0.55821451  0.70732021  0.40400251    -0.00800
C681        C  0.59334641  0.73718609  0.42031450    -0.04400
C682        C  0.58897125  0.78423382  0.41707994     0.02600
C683        C  0.46211521  0.78425110  0.41051898     0.09500
C684        C  0.47915012  0.69424939  0.37534990     0.35300
C685        C  0.62725218  0.81504391  0.42866906     0.38800
C686        C  0.44317537  0.82080640  0.38773756    -0.04800
C687        C  0.41265797  0.84757950  0.41026482     0.02400
C688        C  0.39595984  0.83339306  0.45290028    -0.04400
C689        C  0.40533311  0.78957542  0.46850491    -0.00600
C690        C  0.44144755  0.76721407  0.45017000    -0.03200
C691        C  0.45831500  0.83290195  0.34293622     0.36100
C692        C  0.37884756  0.76813244  0.50418828     0.39700
C693        C  0.40189678  0.89084537  0.39074979     0.38800
C694        C  0.46021866  0.73006255  0.47524285     0.35800
C695        C  0.54005075  0.84911927  0.41276355     0.36400
C696        C  0.56396055  0.65896801  0.40463437     0.39700
N697        N  0.39344257  0.92527184  0.37480436    -0.38400
N698        N  0.47022122  0.84225362  0.30706833    -0.40000
N699        N  0.35751211  0.75106600  0.53247247    -0.37700
N700        N  0.47536298  0.70090281  0.49577084    -0.40100
N701        N  0.44968263  0.67024676  0.36228912    -0.39900
N702        N  0.56844232  0.62033348  0.40537785    -0.37500
N703        N  0.65777678  0.83963716  0.43774316    -0.38600
N704        N  0.53543731  0.88752134  0.41653750    -0.40200
C705        C  0.95461163  0.79751322  0.77448433    -0.05100
C706        C  0.97511473  0.83288032  0.74850236     0.09000
C707        C  0.95124629  0.84971691  0.71087553    -0.02500
C708        C  0.91043315  0.82756399  0.69616285    -0.00800
C709        C  0.89466234  0.78691847  0.71723337    -0.04400
C710        C  0.91490974  0.77369311  0.75824565     0.02600
C711        C  0.02482949  0.84556663  0.75351764     0.09500
C712        C  0.97083599  0.88696629  0.68437911     0.35300
C713        C  0.89730357  0.73351182  0.78150926     0.38800
C714        C  0.05633604  0.81517468  0.73763722    -0.04800
C715        C  0.10042801  0.83123808  0.72628659     0.02400
C716        C  0.11234571  0.87800601  0.72826132    -0.04400
C717        C  0.08343124  0.90707403  0.75007022    -0.00600
C718        C  0.03987396  0.89057076  0.76353151    -0.03200
C719        C  0.04192591  0.76858852  0.72774321     0.36100
C720        C  0.09675953  0.95466097  0.75471553     0.39700
C721        C  0.13222406  0.80042940  0.70828650     0.38800
C722        C  0.00884418  0.92084071  0.78342510     0.35800
C723        C  0.97610415  0.78390126  0.81620163     0.36400
C724        C  0.88671471  0.84426424  0.65670671     0.39700
N725        N  0.15759933  0.77594139  0.69388643    -0.38400
N726        N  0.03038252  0.73154228  0.71950455    -0.40000
N727        N  0.10742864  0.99267158  0.75835460    -0.37700
N728        N  0.98399064  0.94505556  0.79912943    -0.40100
N729        N  0.98641595  0.91654268  0.66308935    -0.39900
N730        N  0.86796134  0.85720826  0.62504836    -0.37500
N731        N  0.88309556  0.70134842  0.79987083    -0.38600
N732        N  0.99300773  0.77316422  0.84970848    -0.40200
C733        C  0.67215155  0.97807274  0.77593760    -0.05100
C734        C  0.65923334  0.98860931  0.81978748     0.09000
C735        C  0.63510164  0.95568331  0.84580876    -0.02500
C736        C  0.61794903  0.91540909  0.82560437    -0.00800
C737        C  0.62303065  0.90914061  0.77896841    -0.04400
C738        C  0.65291315  0.93895585  0.75486979     0.02600
C739        C  0.65987087  0.03674404  0.83415978     0.09500
C740        C  0.62417710  0.96504518  0.89208568     0.35300
C741        C  0.66009019  0.93232607  0.70738465     0.38800
C742        C  0.62749496  0.06510747  0.81482818    -0.04800
C743        C  0.61856168  0.10602891  0.83562768     0.02400
C744        C  0.63975641  0.11715550  0.87711922    -0.04400
C745        C  0.67566076  0.09170182  0.89368040    -0.00600
C746        C  0.68634894  0.05178525  0.87155041    -0.03200
C747        C  0.60014254  0.05025100  0.77612752     0.36100
C748        C  0.69904072  0.10460322  0.93524359     0.39700
C749        C  0.58567349  0.13552022  0.81578272     0.38800
C750        C  0.72210083  0.02442104  0.88902361     0.35800
C751        C  0.70169288  0.00980632  0.75139501     0.36400
C752        C  0.59214821  0.88196880  0.85200525     0.39700
N753        N  0.55967550  0.15911764  0.79977312    -0.38400
N754        N  0.57814201  0.03822447  0.74549311    -0.40000
N755        N  0.71761328  0.11485734  0.96847640    -0.37700
N756        N  0.75060605  0.00254838  0.90303150    -0.40100
N757        N  0.61554801  0.97256305  0.92898107    -0.39900
N758        N  0.57153184  0.85543557  0.87315261    -0.37500
N759        N  0.66585120  0.92738888  0.66942280    -0.38600
N760        N  0.72540862  0.03513713  0.73197345    -0.40200
loop_ 
_geom_bond_atom_site_label_1 
_geom_bond_atom_site_label_2 
_geom_bond_distance 
_geom_bond_site_symmetry_2 
_ccdc_geom_bond_type 
C1            C2   1.407       .  A
C1            C6   1.406       .  A
C1          C737   1.486       .  S
C2            C3   1.406       .  A
C2            H7   1.083       .  S
C3            C4   1.422       .  A
C3          C412   1.499       .  S
C4            C5   1.415       .  A
C4            H8   1.083       .  S
C5            C6   1.393       .  A
C5          C106   1.491       .  S
C6            H9   1.085       .  S
C10          C11   1.404       .  A
C10          C15   1.408       .  A
C10         C744   1.474       .  S
C11          C12   1.401       .  A
C11          H16   1.084       .  S
C12          C13   1.397       .  A
C12          C94   1.464       .  S
C13          C14   1.409       .  A
C13          H17   1.086       .  S
C14          C15   1.393       .  A
C14         C270   1.475       .  S
C15          H18   1.084       .  S
C19          C20   1.403       .  A
C19          C24   1.401       .  A
C19         C709   1.489       .  S
C20          C21   1.407       .  A
C20          H25   1.084       .  S
C21          C22   1.413       .  A
C21         C409   1.475       .  S
C22          C23   1.410       .  A
C22          H26   1.083       .  S
C23          C24   1.396       .  A
C23         C157   1.482       .  S
C24          H27   1.085       .  S
C28          C29   1.411       .  A
C28          C33   1.408       .  A
C28         C716   1.486       .  S
C29          C30   1.409       .  A
C29          H34   1.083       .  S
C30          C31   1.430       .  A
C30         C112   1.512       .  S
C31          C32   1.424       .  A
C31          H35   1.083       .  S
C32          C33   1.391       .  A
C32         C350   1.503       .  S
C33          H36   1.085       .  S
C37          C38   1.391       .  A
C37          C42   1.397       .  A
C37         C681   1.472       .  S
C38          C39   1.399       .  A
C38          H43   1.084       .  S
C39          C40   1.414       .  A
C39         C153   1.463       .  S
C40          C41   1.412       .  A
C40          H44   1.083       .  S
C41          C42   1.403       .  A
C41         C413   1.488       .  S
C42          H45   1.085       .  S
C46          C47   1.423       .  A
C46          C51   1.412       .  A
C46         C688   1.497       .  S
C47          C48   1.395       .  A
C47          H52   1.082       .  S
C48          C49   1.409       .  A
C48         C120   1.493       .  S
C49          C50   1.396       .  A
C49          H53   1.085       .  S
C50          C51   1.399       .  A
C50         C358   1.466       .  S
C51          H54   1.083       .  S
C55          C56   1.415       .  A
C55          C60   1.404       .  A
C55         C653   1.506       .  S
C56          C57   1.414       .  A
C56          H61   1.082       .  S
C57          C58   1.407       .  A
C57         C402   1.476       .  S
C58          C59   1.401       .  A
C58          H62   1.081       .  S
C59          C60   1.393       .  A
C59          C83   1.474       .  S
C60          H63   1.085       .  S
C64          C65   1.405       .  A
C64          C69   1.415       .  A
C64         C660   1.505       .  S
C65          C66   1.394       .  A
C65          H70   1.085       .  S
C66          C67   1.400       .  A
C66         C197   1.473       .  S
C67          C68   1.405       .  A
C67          H71   1.083       .  S
C68          C69   1.415       .  A
C68         C146   1.473       .  S
C69          H72   1.082       .  S
O73         Ni79   1.895       .  S
O73          C94   1.265       .  A
O74         Ni97   1.895       .  S
O74          C83   1.265       .  A
O75         Ni79   1.921       .  S
O75         Ni97   1.926       .  S
O75         Ni91   1.956       .  S
O75          H98   0.968       .  S
C76         C224   1.477       .  S
C76          O93   1.289       .  A
C76          O85   1.277       .  A
O77         Ni96   1.938       .  S
O77          C83   1.277       .  A
O78         Ni96   1.922       .  S
O78          C80   1.273       .  A
Ni79         O82   1.933       .  S
Ni79         O84   1.914       .  S
C80         C173   1.478       .  S
C80          O90   1.268       .  A
O81         Ni97   1.897       .  S
O81          C87   1.258       .  A
O82          C87   1.269       .  A
O84          C86   1.272       .  A
O85         Ni96   1.911   1_554  S
C86         C365   1.489       .  S
C86          O92   1.283       .  A
C87         C394   1.492       .  S
H88          O89   0.968       .  S
O89         Ni97   1.877       .  S
O89         Ni91   1.892       .  S
O89         Ni96   1.893       .  S
O90         Ni91   1.927       .  S
Ni91         O95   1.926       .  S
Ni91         O93   1.947   1_556  S
O92         Ni97   1.952       .  S
C94          O95   1.273       .  A
O99        Ni105   1.874       .  S
O99         C120   1.254       .  A
O100       Ni123   1.907       .  S
O100        C109   1.273       .  A
O101       Ni105   1.881       .  S
O101       Ni123   1.879       .  S
O101       Ni117   1.939       .  S
O101        H124   0.962       .  S
C102        C374   1.472       .  S
C102        O119   1.292       .  A
C102        O111   1.276       .  A
O103       Ni122   1.953       .  S
O103        C109   1.280       .  A
O104       Ni122   1.939       .  S
O104        C106   1.280       .  A
Ni105       O108   1.917   1_565  S
Ni105       O110   1.909       .  S
C106        O116   1.270       .  A
O107       Ni123   1.941   1_545  S
O107        C113   1.283       .  A
O108        C113   1.279       .  A
C109        C235   1.488       .  S
O110        C112   1.264       .  A
O111       Ni122   1.908       .  S
C112        O118   1.281       .  A
C113        C286   1.489       .  S
H114        O115   0.968       .  S
O115       Ni123   1.904       .  S
O115       Ni117   1.924       .  S
O115       Ni122   1.889       .  S
O116       Ni117   1.927       .  S
Ni117       O121   1.976       .  S
Ni117       O119   1.946       .  S
O118       Ni123   1.975       .  S
C120        O121   1.281       .  A
C125        C126   1.410       .  A
C125        C130   1.407       .  A
C125        C625   1.487       .  S
C126        C127   1.394       .  A
C126        H131   1.084       .  S
C127        C128   1.413       .  A
C127        C164   1.486   1_455  S
C128        C129   1.403       .  A
C128        H132   1.083       .  S
C129        C130   1.406       .  A
C129        C351   1.488       .  S
C130        H133   1.083       .  S
C134        C135   1.408       .  A
C134        C139   1.407       .  A
C134        C632   1.478       .  S
C135        C136   1.393       .  A
C135        H140   1.085       .  S
C136        C137   1.402       .  A
C136        C200   1.477   1_455  S
C137        C138   1.407       .  A
C137        H141   1.081       .  S
C138        C139   1.404       .  A
C138        C296   1.474       .  S
C139        H142   1.084       .  S
O143       Ni149   1.895       .  S
O143        C164   1.262       .  A
O144       Ni167   1.886       .  S
O144        C153   1.266       .  A
O145       Ni149   1.888       .  S
O145       Ni167   1.888       .  S
O145       Ni161   1.934       .  S
O145        H168   0.966       .  S
C146        O163   1.288       .  A
C146        O155   1.281       .  A
O147       Ni166   1.947       .  S
O147        C153   1.279       .  A
O148       Ni166   1.915       .  S
O148        C150   1.272       .  A
Ni149       O152   1.916       .  S
Ni149       O154   1.910       .  S
C150        C383   1.492       .  S
C150        O160   1.277       .  A
O151       Ni167   1.939       .  S
O151        C157   1.277       .  A
O152        C157   1.277       .  A
O154        C156   1.265       .  A
O155       Ni166   1.926       .  S
C156        C323   1.500       .  S
C156        O162   1.276       .  A
H158        O159   0.967       .  S
O159       Ni167   1.899       .  S
O159       Ni161   1.906       .  S
O159       Ni166   1.876       .  S
O160       Ni161   1.960       .  S
Ni161       O165   1.951       .  S
Ni161       O163   1.940       .  S
O162       Ni167   1.958       .  S
C164        O165   1.283       .  A
C169        C170   1.413   1_556  A
C169        C174   1.412       .  A
C169        C604   1.490       .  S
C170        C171   1.396       .  A
C170        H175   1.084       .  S
C171        C172   1.409       .  A
C171        C190   1.489       .  S
C172        C173   1.398   1_554  A
C172        H176   1.083       .  S
C173        C174   1.406       .  A
C174        H177   1.083       .  S
C178        C179   1.410       .  A
C178        C183   1.407   1_556  A
C178        C597   1.484       .  S
C179        C180   1.406       .  A
C179        H184   1.083       .  S
C180        C181   1.406   1_556  A
C180        C259   1.485       .  S
C181        C182   1.413       .  A
C181        H185   1.084       .  S
C182        C183   1.394       .  A
C182        C314   1.487       .  S
C183        H186   1.084       .  S
O187       Ni193   1.911       .  S
O187        C208   1.269       .  A
O188       Ni211   1.890       .  S
O188        C197   1.266       .  A
O189       Ni193   1.891       .  S
O189       Ni211   1.907       .  S
O189       Ni205   1.932       .  S
O189        H212   0.966       .  S
C190        O207   1.293       .  A
C190        O199   1.279       .  A
O191       Ni210   1.942       .  S
O191        C197   1.279       .  A
O192       Ni210   1.925       .  S
O192        C194   1.273       .  A
Ni193       O196   1.934       .  S
Ni193       O198   1.915       .  S
C194        C226   1.479       .  S
C194        O204   1.274       .  A
O195       Ni211   1.926       .  S
O195        C201   1.269       .  A
O196        C201   1.277       .  A
O198        C200   1.271       .  A
O199       Ni210   1.914       .  S
C200        O206   1.270       .  A
C201        C385   1.496       .  S
H202        O203   0.967       .  S
O203       Ni211   1.888       .  S
O203       Ni205   1.905       .  S
O203       Ni210   1.877       .  S
O204       Ni205   1.942       .  S
Ni205       O209   1.955       .  S
Ni205       O207   1.949       .  S
O206       Ni211   1.927       .  S
C208        C330   1.484       .  S
C208        O209   1.285       .  A
C213        C214   1.404       .  A
C213        C218   1.411       .  A
C213        C576   1.496       .  S
C214        C215   1.395       .  A
C214        H219   1.084       .  S
C215        C216   1.401       .  A
C215        C263   1.482       .  S
C216        C217   1.414       .  A
C216        H220   1.084       .  S
C217        C218   1.413       .  A
C217        C306   1.486       .  S
C218        H221   1.083       .  S
C222        C223   1.413       .  A
C222        C227   1.417       .  A
C222        C569   1.490       .  S
C223        C224   1.392       .  A
C223        H228   1.084       .  S
C224        C225   1.401       .  A
C225        C226   1.399       .  A
C225        H229   1.080       .  S
C226        C227   1.408       .  A
C227        H230   1.083       .  S
C231        C232   1.405   1_565  A
C231        C236   1.412       .  A
C231        C548   1.490   1_556  S
C232        C233   1.393       .  A
C232        H237   1.085   1_556  S
C233        C234   1.405       .  A
C233        C256   1.473       .  S
C234        C235   1.406   1_545  A
C234        H238   1.077       .  S
C235        C236   1.411       .  A
C236        H239   1.083       .  S
C240        C241   1.409       .  A
C240        C245   1.405   1_565  A
C240        C541   1.489       .  S
C241        C242   1.410       .  A
C241        H246   1.083       .  S
C242        C243   1.413   1_565  A
C242        C344   1.481       .  S
C243        C244   1.405       .  A
C243        H247   1.084       .  S
C244        C245   1.397       .  A
C244        C307   1.483       .  S
C245        H248   1.085       .  S
O249       Ni255   1.881       .  S
O249        C270   1.261   1_554  A
O250       Ni273   1.894       .  S
O250        C259   1.264       .  A
O251       Ni255   1.931   1_556  S
O251       Ni273   1.921       .  S
O251       Ni267   1.944       .  S
O251        H274   0.966   1_556  S
C252        C288   1.466       .  S
C252        O269   1.277       .  A
C252        O261   1.276       .  A
O253       Ni272   1.961       .  S
O253        C259   1.278       .  A
O254       Ni272   1.911       .  S
O254        C256   1.272       .  A
Ni255       O258   1.914       .  S
Ni255       O260   1.898       .  S
C256        O266   1.278       .  A
O257       Ni273   1.911   1_554  S
O257        C263   1.262       .  A
O258        C263   1.265       .  A
O260        C262   1.267   1_554  A
O261       Ni272   1.928       .  S
C262        C367   1.498       .  S
C262        O268   1.285       .  A
H264        O265   0.966       .  S
O265       Ni273   1.894       .  S
O265       Ni267   1.912       .  S
O265       Ni272   1.913       .  S
O266       Ni267   1.948       .  S
Ni267       O271   1.934       .  S
Ni267       O269   1.921       .  S
O268       Ni273   1.969       .  S
C270        O271   1.276       .  A
C275        C276   1.407       .  A
C275        C280   1.408       .  A
C275        C513   1.491       .  S
C276        C277   1.403       .  A
C276        H281   1.084       .  S
C277        C278   1.399       .  A
C277        C303   1.468       .  S
C278        C279   1.407       .  A
C278        H282   1.084       .  S
C279        C280   1.396       .  A
C279        C340   1.477       .  S
C280        H283   1.084       .  S
C284        C285   1.404       .  A
C284        C289   1.398       .  A
C284        C520   1.472       .  S
C285        C286   1.398       .  A
C285        H290   1.085       .  S
C286        C287   1.406       .  A
C287        C288   1.409       .  A
C287        H291   1.077       .  S
C288        C289   1.398       .  A
C289        H292   1.084       .  S
O293       Ni299   1.911       .  S
O293        C314   1.267       .  A
O294       Ni317   1.878       .  S
O294        C303   1.262       .  A
O295       Ni299   1.894       .  S
O295       Ni317   1.892       .  S
O295       Ni311   1.928       .  S
O295        H318   0.965       .  S
C296        O313   1.290       .  A
C296        O305   1.284       .  A
O297       Ni316   1.967       .  S
O297        C303   1.283       .  A
O298       Ni316   1.927       .  S
O298        C300   1.275       .  A
Ni299       O302   1.923       .  S
Ni299       O304   1.909       .  S
C300        C332   1.490   1_455  S
C300        O310   1.277       .  A
O301       Ni317   1.939       .  S
O301        C307   1.278       .  A
O302        C307   1.277       .  A
O304        C306   1.266       .  A
O305       Ni316   1.932       .  S
C306        O312   1.269       .  A
H308        O309   0.968       .  S
O309       Ni317   1.883       .  S
O309       Ni311   1.900       .  S
O309       Ni316   1.878       .  S
O310       Ni311   1.951       .  S
Ni311       O315   1.947       .  S
Ni311       O313   1.937       .  S
O312       Ni317   1.936       .  S
C314        O315   1.285       .  A
C319        C320   1.402       .  A
C319        C324   1.411       .  A
C319        C485   1.498       .  S
C320        C321   1.400       .  A
C320        H325   1.085       .  S
C321        C322   1.408       .  A
C321        C347   1.497   1_655  S
C322        C323   1.424       .  A
C322        H326   1.083       .  S
C323        C324   1.416       .  A
C324        H327   1.083       .  S
C328        C329   1.410       .  A
C328        C333   1.409       .  A
C328        C492   1.493       .  S
C329        C330   1.408       .  A
C329        H334   1.084       .  S
C330        C331   1.415       .  A
C331        C332   1.409       .  A
C331        H335   1.082       .  S
C332        C333   1.399       .  A
C333        H336   1.084       .  S
O337       Ni343   1.885       .  S
O337        C358   1.257       .  A
O338       Ni361   1.925       .  S
O338        C347   1.278       .  A
O339       Ni343   1.880       .  S
O339       Ni361   1.884       .  S
O339       Ni355   1.925       .  S
O339        H362   0.967       .  S
C340        O357   1.290       .  A
C340        O349   1.280       .  A
O341       Ni360   1.938       .  S
O341        C347   1.280       .  A
O342       Ni360   1.918       .  S
O342        C344   1.272       .  A
Ni343       O346   1.924       .  S
Ni343       O348   1.907       .  S
C344        O354   1.271       .  A
O345       Ni361   1.934       .  S
O345        C351   1.282       .  A
O346        C351   1.279       .  A
O348        C350   1.266       .  A
O349       Ni360   1.917   1_545  S
C350        O356   1.282       .  A
H352        O353   0.966       .  S
O353       Ni361   1.905       .  S
O353       Ni355   1.904       .  S
O353       Ni360   1.881       .  S
O354       Ni355   1.932       .  S
Ni355       O359   1.951       .  S
Ni355       O357   1.936   1_565  S
O356       Ni361   1.974       .  S
C358        O359   1.275       .  A
C363        C364   1.403       .  A
C363        C368   1.406       .  A
C363        C457   1.478       .  S
C364        C365   1.390       .  A
C364        H369   1.085       .  S
C365        C366   1.415       .  A
C366        C367   1.424       .  A
C366        H370   1.084       .  S
C367        C368   1.407       .  A
C368        H371   1.083       .  S
C372        C373   1.407       .  A
C372        C377   1.408       .  A
C372        C464   1.493       .  S
C373        C374   1.409       .  A
C373        H378   1.084       .  S
C374        C375   1.397       .  A
C375        C376   1.413       .  A
C375        H379   1.084       .  S
C376        C377   1.393       .  A
C376        C420   1.479       .  S
C377        H380   1.084       .  S
C381        C382   1.405       .  A
C381        C386   1.400       .  A
C381        C436   1.490       .  S
C382        C383   1.398       .  A
C382        H387   1.085       .  S
C383        C384   1.416       .  A
C384        C385   1.423       .  A
C384        H388   1.081       .  S
C385        C386   1.406       .  A
C386        H389   1.083       .  S
C390        C391   1.403       .  A
C390        C395   1.401       .  A
C390        C429   1.480       .  S
C391        C392   1.395       .  A
C391        H396   1.085       .  S
C392        C393   1.411       .  A
C392        C406   1.481       .  S
C393        C394   1.417       .  A
C393        H397   1.080       .  S
C394        C395   1.406       .  A
C395        H398   1.084       .  S
O399       Ni405   1.884       .  S
O399        C420   1.262       .  A
O400       Ni423   1.899       .  S
O400        C409   1.268       .  A
O401       Ni405   1.916       .  S
O401       Ni423   1.921       .  S
O401       Ni417   1.948       .  S
O401        H424   0.966       .  S
C402        O419   1.287       .  A
C402        O411   1.280       .  A
O403       Ni422   1.954       .  S
O403        C409   1.279       .  A
O404       Ni422   1.921       .  S
O404        C406   1.274       .  A
Ni405       O408   1.905       .  S
Ni405       O410   1.913       .  S
C406        O416   1.274       .  A
O407       Ni423   1.929       .  S
O407        C413   1.268       .  A
O408        C413   1.266       .  A
O410        C412   1.271       .  A
O411       Ni422   1.925       .  S
C412        O418   1.281       .  A
H414        O415   0.966       .  S
O415       Ni423   1.891       .  S
O415       Ni417   1.901       .  S
O415       Ni422   1.889       .  S
O416       Ni417   1.942       .  S
Ni417       O421   1.938       .  S
Ni417       O419   1.944       .  S
O418       Ni423   1.950       .  S
C420        O421   1.280       .  A
C425        C426   1.413       .  A
C425        C430   1.411       .  A
C425        C443   1.450       .  S
C426        C427   1.413       .  A
C426        C431   1.492       .  S
C427        C428   1.404       .  A
C427        C432   1.452       .  S
C428        C429   1.411       .  A
C428        C444   1.452       .  S
C429        C430   1.410       .  A
C430        C433   1.450       .  S
C431        C434   1.412       .  A
C431        C438   1.412       .  A
C432        N449   1.157       .  T
C433        N451   1.157       .  T
C434        C435   1.403       .  A
C434        C439   1.453       .  S
C435        C436   1.414       .  A
C435        C441   1.452       .  S
C436        C437   1.415       .  A
C437        C438   1.412       .  A
C437        C440   1.449       .  S
C438        C442   1.450       .  S
C439        N446   1.157       .  T
C440        N447   1.157       .  T
C441        N445   1.157       .  T
C442        N448   1.157       .  T
C443        N452   1.157       .  T
C444        N450   1.157       .  T
C453        C454   1.414       .  A
C453        C458   1.403       .  A
C453        C471   1.453       .  S
C454        C455   1.411       .  A
C454        C459   1.490       .  S
C455        C456   1.411       .  A
C455        C460   1.449       .  S
C456        C457   1.411       .  A
C456        C472   1.450   1_556  S
C457        C458   1.411       .  A
C458        C461   1.453       .  S
C459        C462   1.408       .  A
C459        C466   1.411       .  A
C460        N477   1.157   1_556  T
C461        N479   1.157       .  T
C462        C463   1.411       .  A
C462        C467   1.450       .  S
C463        C464   1.417       .  A
C463        C469   1.449       .  S
C464        C465   1.417       .  A
C465        C466   1.405       .  A
C465        C468   1.453       .  S
C466        C470   1.453       .  S
C467        N474   1.157       .  T
C468        N475   1.158       .  T
C469        N473   1.157       .  T
C470        N476   1.157       .  T
C471        N480   1.157       .  T
C472        N478   1.157       .  T
C481        C482   1.415       .  A
C481        C486   1.417   1_545  A
C481        C499   1.449       .  S
C482        C483   1.414   1_545  A
C482        C487   1.508       .  S
C483        C484   1.411       .  A
C483        C488   1.452       .  S
C484        C485   1.415       .  A
C484        C500   1.451       .  S
C485        C486   1.413       .  A
C486        C489   1.449       .  S
C487        C490   1.416       .  A
C487        C494   1.416       .  A
C488        N505   1.157       .  T
C489        N507   1.157       .  T
C490        C491   1.410       .  A
C490        C495   1.451       .  S
C491        C492   1.412       .  A
C491        C497   1.452       .  S
C492        C493   1.411       .  A
C493        C494   1.416       .  A
C493        C496   1.449       .  S
C494        C498   1.449       .  S
C495        N502   1.157       .  T
C496        N503   1.157       .  T
C497        N501   1.157       .  T
C498        N504   1.157       .  T
C499        N508   1.157       .  T
C500        N506   1.157       .  T
C509        C510   1.412       .  A
C509        C514   1.405       .  A
C509        C527   1.453       .  S
C510        C511   1.408       .  A
C510        C515   1.490       .  S
C511        C512   1.411       .  A
C511        C516   1.451       .  S
C512        C513   1.418       .  A
C512        C528   1.450       .  S
C513        C514   1.416       .  A
C514        C517   1.453       .  S
C515        C518   1.412       .  A
C515        C522   1.414       .  A
C516        N533   1.157       .  T
C517        N535   1.157       .  T
C518        C519   1.410       .  A
C518        C523   1.448       .  S
C519        C520   1.406       .  A
C519        C525   1.449       .  S
C520        C521   1.410       .  A
C521        C522   1.401       .  A
C521        C524   1.454       .  S
C522        C526   1.453       .  S
C523        N530   1.157       .  T
C524        N531   1.157       .  T
C525        N529   1.157       .  T
C526        N532   1.157       .  T
C527        N536   1.157       .  T
C528        N534   1.157       .  T
C537        C538   1.414       .  A
C537        C542   1.410       .  A
C537        C555   1.450       .  S
C538        C539   1.415       .  A
C538        C543   1.504       .  S
C539        C540   1.414       .  A
C539        C544   1.449       .  S
C540        C541   1.410       .  A
C540        C556   1.449       .  S
C541        C542   1.411       .  A
C542        C545   1.451       .  S
C543        C546   1.415       .  A
C543        C550   1.416       .  A
C544        N561   1.157       .  T
C545        N563   1.157   1_565  T
C546        C547   1.417       .  A
C546        C551   1.449       .  S
C547        C548   1.413       .  A
C547        C553   1.449       .  S
C548        C549   1.412       .  A
C549        C550   1.406       .  A
C549        C552   1.452       .  S
C550        C554   1.453       .  S
C551        N558   1.157       .  T
C552        N559   1.157   1_554  T
C553        N557   1.157       .  T
C554        N560   1.157       .  T
C555        N564   1.157       .  T
C556        N562   1.157       .  T
C565        C566   1.415       .  A
C565        C570   1.407       .  A
C565        C583   1.451       .  S
C566        C567   1.414       .  A
C566        C571   1.503       .  S
C567        C568   1.416       .  A
C567        C572   1.449       .  S
C568        C569   1.414       .  A
C568        C584   1.450       .  S
C569        C570   1.411       .  A
C570        C573   1.453       .  S
C571        C574   1.413       .  A
C571        C578   1.414       .  A
C572        N589   1.157       .  T
C573        N591   1.157       .  T
C574        C575   1.414       .  A
C574        C579   1.448       .  S
C575        C576   1.412       .  A
C575        C581   1.448       .  S
C576        C577   1.414       .  A
C577        C578   1.410       .  A
C577        C580   1.451       .  S
C578        C582   1.451       .  S
C579        N586   1.157       .  T
C580        N587   1.157       .  T
C581        N585   1.157       .  T
C582        N588   1.157       .  T
C583        N592   1.157       .  T
C584        N590   1.157       .  T
C593        C594   1.415       .  A
C593        C598   1.405       .  A
C593        C611   1.453       .  S
C594        C595   1.411       .  A
C594        C599   1.495   1_455  S
C595        C596   1.412       .  A
C595        C600   1.450   1_455  S
C596        C597   1.413       .  A
C596        C612   1.450       .  S
C597        C598   1.411       .  A
C598        C601   1.452       .  S
C599        C602   1.409       .  A
C599        C606   1.411       .  A
C600        N617   1.157       .  T
C601        N619   1.157       .  T
C602        C603   1.411       .  A
C602        C607   1.450       .  S
C603        C604   1.416       .  A
C603        C609   1.450       .  S
C604        C605   1.413       .  A
C605        C606   1.407       .  A
C605        C608   1.451   1_556  S
C606        C610   1.451       .  S
C607        N614   1.157       .  T
C608        N615   1.157       .  T
C609        N613   1.157       .  T
C610        N616   1.157   1_556  T
C611        N620   1.157   1_455  T
C612        N618   1.157       .  T
C621        C622   1.415       .  A
C621        C626   1.403       .  A
C621        C639   1.451       .  S
C622        C623   1.414       .  A
C622        C627   1.497       .  S
C623        C624   1.412       .  A
C623        C628   1.451       .  S
C624        C625   1.414       .  A
C624        C640   1.450       .  S
C625        C626   1.412       .  A
C626        C629   1.453       .  S
C627        C630   1.416       .  A
C627        C634   1.416       .  A
C628        N645   1.157       .  T
C629        N647   1.157       .  T
C630        C631   1.413       .  A
C630        C635   1.449       .  S
C631        C632   1.407       .  A
C631        C637   1.448       .  S
C632        C633   1.409       .  A
C633        C634   1.402       .  A
C633        C636   1.453       .  S
C634        C638   1.453       .  S
C635        N642   1.157       .  T
C636        N643   1.157       .  T
C637        N641   1.157       .  T
C638        N644   1.157       .  T
C639        N648   1.157       .  T
C640        N646   1.157       .  T
C649        C650   1.418       .  A
C649        C654   1.409       .  A
C649        C667   1.453       .  S
C650        C651   1.416       .  A
C650        C655   1.513       .  S
C651        C652   1.418   1_554  A
C651        C656   1.450       .  S
C652        C653   1.419       .  A
C652        C668   1.449       .  S
C653        C654   1.417   1_556  A
C654        C657   1.453       .  S
C655        C658   1.416       .  A
C655        C662   1.415       .  A
C656        N673   1.157   1_554  T
C657        N675   1.157       .  T
C658        C659   1.411       .  A
C658        C663   1.451       .  S
C659        C660   1.417       .  A
C659        C665   1.453       .  S
C660        C661   1.417       .  A
C661        C662   1.416       .  A
C661        C664   1.448       .  S
C662        C666   1.450       .  S
C663        N670   1.158       .  T
C664        N671   1.157       .  T
C665        N669   1.157       .  T
C666        N672   1.157       .  T
C667        N676   1.158       .  T
C668        N674   1.158       .  T
C677        C678   1.417       .  A
C677        C682   1.403       .  A
C677        C695   1.452       .  S
C678        C679   1.411       .  A
C678        C683   1.493       .  S
C679        C680   1.408       .  A
C679        C684   1.449       .  S
C680        C681   1.409       .  A
C680        C696   1.449       .  S
C681        C682   1.407       .  A
C682        C685   1.452       .  S
C683        C686   1.407       .  A
C683        C690   1.416       .  A
C684        N701   1.157       .  T
C685        N703   1.157       .  T
C686        C687   1.410       .  A
C686        C691   1.451       .  S
C687        C688   1.422       .  A
C687        C693   1.450       .  S
C688        C689   1.413       .  A
C689        C690   1.402       .  A
C689        C692   1.452       .  S
C690        C694   1.452       .  S
C691        N698   1.157       .  T
C692        N699   1.157       .  T
C693        N697   1.158       .  T
C694        N700   1.158       .  T
C695        N704   1.157       .  T
C696        N702   1.157       .  T
C705        C706   1.414       .  A
C705        C710   1.415       .  A
C705        C723   1.449       .  S
C706        C707   1.414       .  A
C706        C711   1.500   1_655  S
C707        C708   1.405       .  A
C707        C712   1.452       .  S
C708        C709   1.413       .  A
C708        C724   1.453       .  S
C709        C710   1.412       .  A
C710        C713   1.449       .  S
C711        C714   1.415       .  A
C711        C718   1.414       .  A
C712        N729   1.157       .  T
C713        N731   1.157       .  T
C714        C715   1.407       .  A
C714        C719   1.452       .  S
C715        C716   1.411       .  A
C715        C721   1.452       .  S
C716        C717   1.411       .  A
C717        C718   1.414       .  A
C717        C720   1.449       .  S
C718        C722   1.449       .  S
C719        N726   1.157       .  T
C720        N727   1.157       .  T
C721        N725   1.157       .  T
C722        N728   1.157   1_455  T
C723        N732   1.157       .  T
C724        N730   1.157       .  T
C733        C734   1.408       .  A
C733        C738   1.409       .  A
C733        C751   1.450   1_565  S
C734        C735   1.412       .  A
C734        C739   1.489   1_565  S
C735        C736   1.405       .  A
C735        C740   1.452       .  S
C736        C737   1.414       .  A
C736        C752   1.452       .  S
C737        C738   1.415       .  A
C738        C741   1.449       .  S
C739        C742   1.415       .  A
C739        C746   1.410       .  A
C740        N757   1.157       .  T
C741        N759   1.157       .  T
C742        C743   1.402       .  A
C742        C747   1.452       .  S
C743        C744   1.408       .  A
C743        C749   1.453       .  S
C744        C745   1.410       .  A
C745        C746   1.408       .  A
C745        C748   1.450       .  S
C746        C750   1.449       .  S
C747        N754   1.157       .  T
C748        N755   1.157       .  T
C749        N753   1.157       .  T
C750        N756   1.157       .  T
C751        N760   1.157       .  T
C752        N758   1.157       .  T
