geometry optimzed in LAMMPS
_audit_creation_date              2020-11-30 
_audit_creation_method            'lammps2cif' 
_symmetry_space_group_name_H-M    'P1' 
_symmetry_Int_Tables_number       1 
_symmetry_cell_setting            triclinic 
loop_ 
_symmetry_equiv_pos_as_xyz 
  x,y,z 
_cell_length_a                    34.21187318 
_cell_length_b                    29.869034829142283 
_cell_length_c                    40.37203552137396 
_cell_angle_alpha                 91.80956345883791 
_cell_angle_beta                  84.9797051383829 
_cell_angle_gamma                 88.77527597346747 
loop_ 
_atom_site_label 
_atom_site_type_symbol 
_atom_site_fract_x 
_atom_site_fract_y 
_atom_site_fract_z 
_atom_site_charge 
C1          C  0.07411218  0.33587218  0.00056593     0.86100
C2          C  0.09436923  0.35044883  0.03137101    -0.54100
C3          C  0.10942010  0.39235123  0.03046696     0.09100
C4          C  0.10136417  0.41938295  0.49785915     0.20000
C5          C  0.04260945  0.37319338  0.99780268    -0.54800
C6          C  0.05728013  0.41526044  0.99647819     0.09200
C7          C  0.10488764  0.34510583  0.47123971    -0.54100
C8          C  0.11976762  0.38735410  0.46955558     0.09700
H9          H  0.09690021  0.32874806  0.05219863     0.14300
H10         H  0.11205607  0.45409013  0.49753680     0.00000
H11         H  0.01155447  0.36827424  0.99659041     0.14600
H12         H  0.11218743  0.31898134  0.45231408     0.14400
C13         C  0.43961376  0.65179162  0.47283758     0.86100
C14         C  0.41442000  0.64338607  0.50575552    -0.54100
C15         C  0.40107791  0.60107086  0.50856539     0.09100
C16         C  0.41407803  0.56991234  0.47862821     0.20000
C17         C  0.47256329  0.61542902  0.47226762    -0.54800
C18         C  0.45909296  0.57268569  0.47547081     0.09200
C19         C  0.41405028  0.63656030  0.44545816    -0.54300
C20         C  0.40075875  0.59383253  0.44811357     0.09700
H21         H  0.40477523  0.66727649  0.02637732     0.14300
H22         H  0.40316513  0.53539449  0.48156057     0.00000
H23         H  0.50354599  0.62297292  0.47110950     0.14600
H24         H  0.40732833  0.65794097  0.42533042     0.14400
Zr25       Zr  0.23766292  0.53466121  0.18580362     2.17500
O26         O  0.18205607  0.56586265  0.15959505    -0.51700
O27         O  0.28479234  0.55073997  0.13917912    -0.74900
O28         O  0.23344374  0.61598420  0.19292417    -0.81700
O29         O  0.20109518  0.42010827  0.16144633    -0.83400
O30         O  0.26551838  0.63571095  0.23808288    -0.79000
O31         O  0.20481871  0.49195007  0.14457782    -0.90700
O32         O  0.34340386  0.51924895  0.14905531    -0.76600
O33         O  0.29799911  0.54998362  0.20874981    -0.86100
O34         O  0.27666371  0.46760317  0.17810555    -0.85800
O35         O  0.21934555  0.55432491  0.24342151    -0.72600
O36         O  0.20047761  0.47880413  0.21526538    -0.84700
Zr37       Zr  0.28352636  0.44423123  0.28903381     2.26400
Zr38       Zr  0.28040021  0.56776114  0.26635295     2.06300
Zr39       Zr  0.24034382  0.41223348  0.20802393     2.10000
Zr40       Zr  0.33630698  0.48250492  0.20196924     1.78800
O41         O  0.18504005  0.36211883  0.21183356    -0.93500
O42         O  0.39040970  0.53305452  0.20775951    -0.41300
O43         O  0.30112863  0.42516366  0.23132162    -0.77900
O44         O  0.32081258  0.50092642  0.25998821    -0.96600
O45         O  0.24485565  0.51157453  0.29605073    -0.89900
O46         O  0.22325466  0.42967446  0.26568198    -0.92800
C47         C  0.32129959  0.54162978  0.13111540     1.01000
C48         C  0.19336285  0.45143998  0.14185290     1.13900
C49         C  0.24625219  0.64496913  0.21323315     1.04700
O50         O  0.34015156  0.61077877  0.26493856    -0.94900
O51         O  0.30657207  0.56251445  0.31989922    -0.90700
O52         O  0.30823102  0.48939001  0.33398453    -0.83800
C53         C  0.31386867  0.53130845  0.33975664     1.11300
O54         O  0.12470403  0.53056148  0.25568202    -0.96900
Zr55       Zr  0.18484913  0.49704737  0.27316003     1.88900
O56         O  0.23676710  0.42959647  0.33638775    -0.73600
O57         O  0.24342029  0.62036434  0.30509261    -0.52800
O58         O  0.16195766  0.56073338  0.30937909    -0.97500
O59         O  0.13135761  0.44458172  0.27188960    -0.54700
O60         O  0.18033310  0.46806093  0.32892685    -0.74100
C61         C  0.20182213  0.44387959  0.34624542     0.98300
O62         O  0.34198816  0.41096687  0.31004231    -0.62900
O63         O  0.27690962  0.36665471  0.16420711    -0.57700
O64         O  0.28592886  0.36201133  0.28210123    -0.94400
O65         O  0.25889383  0.34462659  0.23420242    -0.92800
O66         O  0.36031091  0.42320725  0.16203148    -0.93200
O67         O  0.39582991  0.44465684  0.21664263    -0.91900
C68         C  0.27565456  0.33351819  0.25999954     1.17100
H69         H  0.28137397  0.45889068  0.15480859     0.33100
H70         H  0.34492845  0.50562306  0.27021817     0.43900
H71         H  0.21001227  0.40504349  0.27626030     0.37400
H72         H  0.20280062  0.58091464  0.24544726     0.33900
H73         H  0.40789055  0.52802654  0.18703723     0.25700
H74         H  0.25916734  0.64779767  0.30473117     0.31600
H75         H  0.18280820  0.56478616  0.32464490     0.37500
H76         H  0.38270078  0.43631193  0.14877436     0.32000
H77         H  0.30023288  0.35520673  0.17446498     0.30900
H78         H  0.19189819  0.33841782  0.19446772     0.32600
H79         H  0.13862373  0.41961820  0.28587522     0.31500
H80         H  0.38772605  0.42964424  0.23757488     0.35500
H81         H  0.35311228  0.38966301  0.29221901     0.28300
H82         H  0.19269714  0.59011729  0.14553498     0.32500
H83         H  0.10533611  0.53023874  0.27539406     0.35300
H84         H  0.26070181  0.33996939  0.16134473     0.28000
H85         H  0.36134849  0.43514782  0.30982732     0.40800
H86         H  0.33325697  0.63711195  0.27999356     0.30900
H87         H  0.37881121  0.56339362  0.20575150     0.38500
H88         H  0.13395871  0.43158535  0.24891289     0.30400
H89         H  0.21963716  0.62876148  0.29418439     0.30400
H90         H  0.16526270  0.58126695  0.17789536     0.30700
C91         C  0.33023801  0.14518021  0.25424002     0.86100
C92         C  0.35939832  0.14188165  0.22295033    -0.54100
C93         C  0.37559459  0.10013862  0.21542788     0.09100
C94         C  0.36183621  0.06513559  0.24087188     0.20000
C95         C  0.30034288  0.10839667  0.24914264    -0.54800
C96         C  0.31686451  0.06697487  0.24182289     0.09200
C97         C  0.35436884  0.12723475  0.28169203    -0.54300
C98         C  0.37114043  0.08552973  0.27470924     0.09700
H99         H  0.36598545  0.17045196  0.20761420     0.14300
H100        H  0.37433822  0.03098454  0.23504618     0.00000
H101        H  0.26883339  0.11465471  0.25070570     0.14600
H102        H  0.35922261  0.14535224  0.30450988     0.14400
C103        C  0.20457212  0.83513191  0.21234491     0.86100
C104        C  0.18475028  0.84847576  0.18149013    -0.54100
C105        C  0.17241968  0.89229847  0.18164430     0.09100
C106        C  0.17977132  0.91865294  0.21386074     0.20000
C107        C  0.23701774  0.86938764  0.21644172    -0.54800
C108        C  0.22404008  0.91287921  0.21668122     0.09200
C109        C  0.17436176  0.84811319  0.24178048    -0.54300
C110        C  0.16064118  0.89153622  0.24280136     0.09700
H111        H  0.18002625  0.82439736  0.16163884     0.14300
H112        H  0.16999601  0.95413941  0.21374398     0.00000
H113        H  0.26692312  0.86072789  0.22109688     0.14600
H114        H  0.16656720  0.82549934  0.26168061     0.14400
Zr115      Zr  0.03979726  0.03956544  0.03213629     2.17500
O116        O  0.09220845  0.07652664  0.05897355    -0.51700
O117        O  0.99278080  0.05669027  0.08014095    -0.74900
O118        O  0.04138098  0.12065048  0.02342867    -0.81700
O119        O  0.07676154  0.92568680  0.05658892    -0.83400
O120        O  0.00873363  0.13860806  0.47819858    -0.79000
O121        O  0.07566675  0.99957996  0.07220644    -0.90700
O122        O  0.43508228  0.03213487  0.06833264    -0.76600
O123        O  0.48159844  0.05811851  0.00859219    -0.86100
O124        O  0.00059080  0.97479621  0.03913929    -0.85800
O125        O  0.05807115  0.05558902  0.47366679    -0.72600
O126        O  0.07749333  0.97866779  0.00372490    -0.84700
Zr127      Zr  0.49572200  0.94262190  0.42840265     2.26400
Zr128      Zr  0.99689777  0.06807807  0.45043521     2.06300
Zr129      Zr  0.03747996  0.91443912  0.01012442     2.10000
Zr130      Zr  0.44300435  0.99338350  0.01469776     1.78800
O131        O  0.09270798  0.86143085  0.00047635    -0.93500
O132        O  0.39251202  0.04986887  0.00668867    -0.41300
O133        O  0.47744659  0.93068670  0.48615815    -0.77900
O134        O  0.45823533  0.00419679  0.45631829    -0.96600
O135        O  0.03362608  0.00824459  0.42102199    -0.89900
O136        O  0.05688052  0.92835294  0.45129527    -0.92800
C137        C  0.45780953  0.05135108  0.08764313     1.01000
C138        C  0.08596635  0.95842867  0.07549090     1.13900
C139        C  0.02823855  0.14801713  0.00275284     1.04700
O140        O  0.43886018  0.11139438  0.45009726    -0.94900
O141        O  0.47422336  0.05871344  0.39664081    -0.90700
O142        O  0.46855974  0.98460205  0.38431607    -0.83800
C143        C  0.46470917  0.02623935  0.37769359     1.11300
O144        O  0.15389525  0.02653546  0.46201538    -0.96900
Zr145      Zr  0.09376455  0.99481505  0.44422887     1.88900
O146        O  0.04300264  0.92627228  0.38006316    -0.73600
O147        O  0.03205642  0.11918897  0.41318386    -0.52800
O148        O  0.11495840  0.05678489  0.40969574    -0.97500
O149        O  0.14879523  0.94112653  0.44054265    -0.54700
O150        O  0.09742198  0.96617276  0.38742700    -0.74100
C151        C  0.07667728  0.94128107  0.36978313     0.98300
O152        O  0.44047786  0.90509948  0.40621728    -0.62900
O153        O  0.51211203  0.87266111  0.05542163    -0.57700
O154        O  0.48956477  0.86158699  0.43614333    -0.94400
O155        O  0.01142761  0.84938729  0.48912859    -0.92800
O156        O  0.41264413  0.94090019  0.05342730    -0.93200
O157        O  0.38387875  0.95779019  0.99854430    -0.91900
C158        C  0.49441446  0.83630616  0.46083257     1.17100
H159        H  0.49757895  0.97050620  0.06224480     0.33100
H160        H  0.43430884  0.00940281  0.44575752     0.43900
H161        H  0.07045671  0.90244323  0.44056645     0.37400
H162        H  0.07406995  0.08182917  0.47159310     0.33900
H163        H  0.37319685  0.04773503  0.02629485     0.25700
H164        H  0.01556650  0.14694767  0.41438857     0.31600
H165        H  0.09551169  0.05876807  0.39299292     0.37500
H166        H  0.43478716  0.92724210  0.06406951     0.32000
H167        H  0.02583339  0.84460923  0.05651767     0.30900
H168        H  0.09306517  0.84511656  0.02142114     0.32600
H169        H  0.14048412  0.91527072  0.42714914     0.31500
H170        H  0.39591736  0.93374833  0.47762442     0.35500
H171        H  0.41852430  0.92744772  0.40844317     0.28300
H172        H  0.07906183  0.10011636  0.07405789     0.32500
H173        H  0.17283025  0.02537648  0.44197590     0.35300
H174        H  0.51172813  0.89227245  0.07568142     0.28000
H175        H  0.44759279  0.90126882  0.38196327     0.40800
H176        H  0.44658774  0.13899156  0.43850353     0.30900
H177        H  0.40511786  0.07896897  0.01011866     0.38500
H178        H  0.14928209  0.92991276  0.46331470     0.30400
H179        H  0.05579186  0.12757003  0.42408579     0.30400
H180        H  0.10724518  0.09284457  0.04128162     0.30700
C181        C  0.13345260  0.90917718  0.27176415    -0.00500
C182        C  0.10608536  0.87962419  0.28686713    -0.12400
C183        C  0.08635727  0.88949726  0.31825276     0.01700
C184        C  0.09316635  0.93024743  0.33512831    -0.00600
C185        C  0.11758166  0.96144807  0.31885034    -0.12300
C186        C  0.13729916  0.95171251  0.28750516     0.01600
H187        H  0.10128926  0.84754430  0.27474426     0.14600
H188        H  0.12185416  0.99368370  0.33100341     0.14600
C189        C  0.16149401  0.98631067  0.27322630     0.36300
C190        C  0.06166176  0.85583113  0.33347171     0.36200
N191        N  0.17987872  0.01536622  0.26238022    -0.44100
N192        N  0.04196384  0.82895683  0.34590471    -0.44100
C193        C  0.15306093  0.91233124  0.15361620    -0.00500
C194        C  0.12290770  0.94482226  0.16087240    -0.12400
C195        C  0.10241931  0.96289847  0.13562379     0.01700
C196        C  0.11063294  0.94682390  0.10246128    -0.00600
C197        C  0.14181742  0.91590304  0.09495788    -0.12300
C198        C  0.16369972  0.89961552  0.11985855     0.01600
H199        H  0.11446572  0.95551342  0.18644056     0.14600
H200        H  0.14929072  0.90456704  0.06933438     0.14600
C201        C  0.19764208  0.87130951  0.10960533     0.36300
C202        C  0.07268393  0.99704548  0.14476271     0.36200
N203        N  0.22481807  0.84867530  0.10121760    -0.44100
N204        N  0.04957361  0.02506046  0.15262978    -0.44100
C205        C  0.29337960  0.02746904  0.23478150    -0.00500
C206        C  0.27990686  0.00097118  0.26119094    -0.12400
C207        C  0.25925855  0.96196999  0.25539307     0.01700
C208        C  0.24936985  0.95099430  0.22302086    -0.00600
C209        C  0.26201154  0.97804332  0.19664734    -0.12300
C210        C  0.28456903  0.01572412  0.20220939     0.01600
H211        H  0.28604131  0.01047089  0.28632446     0.14600
H212        H  0.25436233  0.96958431  0.17173314     0.14600
C213        C  0.29771605  0.04217620  0.17427704     0.36300
C214        C  0.24785145  0.93413062  0.28303182     0.36200
N215        N  0.30796449  0.06315657  0.15166862    -0.44100
N216        N  0.23882060  0.91154725  0.30504485    -0.44100
C217        C  0.44629657  0.03821992  0.34701646    -0.00500
C218        C  0.42024030  0.00847073  0.33337112    -0.12400
C219        C  0.39717851  0.02164937  0.30810333     0.01700
C220        C  0.39919579  0.06586819  0.29674174    -0.00600
C221        C  0.42779270  0.09396988  0.30819265    -0.12300
C222        C  0.45159243  0.08048761  0.33257383     0.01600
H223        H  0.41669151  0.97533849  0.34330066     0.14600
H224        H  0.43125363  0.12712650  0.29824452     0.14600
C225        C  0.48151968  0.11079176  0.34157319     0.36300
C226        C  0.37159513  0.98903716  0.29516023     0.36200
N227        N  0.50552981  0.13548948  0.34803461    -0.44100
N228        N  0.35244885  0.96116019  0.28505561    -0.44100
C229        C  0.39991013  0.08947005  0.18344446    -0.00500
C230        C  0.38938815  0.11012814  0.15451314    -0.12400
C231        C  0.40896092  0.09936813  0.12336254     0.01700
C232        C  0.43979801  0.06724149  0.12048634    -0.00600
C233        C  0.45126078  0.04730380  0.14917077    -0.12300
C234        C  0.43203747  0.05844733  0.18059205     0.01600
H235        H  0.36484613  0.13386511  0.15591322     0.14600
H236        H  0.47459888  0.02203728  0.14687196     0.14600
C237        C  0.44700714  0.03852215  0.20919140     0.36300
C238        C  0.39694345  0.12186195  0.09464069     0.36200
N239        N  0.45966355  0.02222048  0.23172076    -0.44100
N240        N  0.38744768  0.14009550  0.07167280    -0.44100
C241        C  0.23522148  0.69224211  0.20971172    -0.00500
C242        C  0.26284853  0.72215072  0.19644422    -0.12400
C243        C  0.25371778  0.76817724  0.19578858     0.01700
C244        C  0.21677600  0.78525066  0.21043382    -0.00600
C245        C  0.18830989  0.75389756  0.22081822    -0.12300
C246        C  0.19741502  0.70821162  0.22124824     0.01600
H247        H  0.29156795  0.70944596  0.18645866     0.14600
H248        H  0.15853898  0.76485941  0.22893912     0.14600
C249        C  0.16770956  0.67852415  0.23476154     0.36300
C250        C  0.28243337  0.79596126  0.17869788     0.36200
N251        N  0.14384736  0.65498140  0.24576945    -0.44100
N252        N  0.30580361  0.81782688  0.16498253    -0.44100
C253        C  0.28501661  0.28444290  0.26250130    -0.00500
C254        C  0.27764431  0.25561600  0.23556247    -0.12400
C255        C  0.29014894  0.21070353  0.23366480     0.01700
C256        C  0.31126174  0.19256954  0.25904115    -0.00600
C257        C  0.31583312  0.22047846  0.28734837    -0.12300
C258        C  0.30303002  0.26568911  0.28926536     0.01600
H259        H  0.26293502  0.26834722  0.21494292     0.14600
H260        H  0.32998519  0.20812684  0.30815970     0.14600
C261        C  0.30913688  0.29175264  0.31902295     0.36300
C262        C  0.28165778  0.18448473  0.20452718     0.36200
N263        N  0.31395444  0.31250169  0.34295973    -0.44100
N264        N  0.27460551  0.16363080  0.18123640    -0.44100
C265        C  0.37533010  0.57408959  0.42355368    -0.00500
C266        C  0.34493117  0.60102472  0.41308756    -0.12400
C267        C  0.32311827  0.58692669  0.38713624     0.01700
C268        C  0.33159056  0.54480316  0.37076062    -0.00600
C269        C  0.36016977  0.51655500  0.38269674    -0.12300
C270        C  0.38208165  0.53077569  0.40872805     0.01600
H271        H  0.33851942  0.63375207  0.42499041     0.14600
H272        H  0.36686770  0.48405460  0.37053395     0.14600
C273        C  0.41270710  0.50101669  0.41799304     0.36300
C274        C  0.29189865  0.61641496  0.37846104     0.36200
N275        N  0.43684434  0.47625939  0.42504937    -0.44100
N276        N  0.26690520  0.64064166  0.37230991    -0.44100
C277        C  0.37918812  0.58543088  0.03889245    -0.00500
C278        C  0.33966448  0.57395686  0.04016373    -0.12400
C279        C  0.31955804  0.56148653  0.07014463     0.01700
C280        C  0.33984248  0.55797871  0.09915227    -0.00600
C281        C  0.37961238  0.56943470  0.09752196    -0.12300
C282        C  0.39904381  0.58393166  0.06801254     0.01600
H283        H  0.32417867  0.57615804  0.01791682     0.14600
H284        H  0.39547857  0.56783519  0.11958769     0.14600
C285        C  0.43944889  0.59706777  0.06812984     0.36300
C286        C  0.27812187  0.55346728  0.07030927     0.36200
N287        N  0.47176981  0.60780199  0.06793897    -0.44100
N288        N  0.24472911  0.54819314  0.07023363    -0.44100
C289        C  0.45364636  0.70035134  0.46817141    -0.00500
C290        C  0.43848978  0.73536691  0.49025515    -0.12400
C291        C  0.45101491  0.77925453  0.48736317     0.01700
C292        C  0.47847821  0.79054645  0.46115015    -0.00600
C293        C  0.49204023  0.75713031  0.43746242    -0.12300
C294        C  0.47981671  0.71244901  0.44065673     0.01600
H295        H  0.42047254  0.73028547  0.01469779     0.14600
H296        H  0.00756474  0.76773312  0.41779944     0.14600
C297        C  0.49410474  0.68001743  0.41494500     0.36300
C298        C  0.43860456  0.81254805  0.01635200     0.36200
N299        N  0.99706967  0.65775472  0.39299229    -0.44100
N300        N  0.42676727  0.83808754  0.03715744    -0.44100
C301        C  0.48485878  0.53327513  0.48042532    -0.00500
C302        C  0.47472346  0.51036818  0.00773463    -0.12400
C303        C  0.00266234  0.47056869  0.01637834     0.01700
C304        C  0.03184495  0.45789091  0.49050221    -0.00600
C305        C  0.03796193  0.48183155  0.46120295    -0.12300
C306        C  0.01529729  0.52031361  0.45610484     0.01600
H307        H  0.45042040  0.52038581  0.02559772     0.14600
H308        H  0.05948398  0.46961726  0.44167402     0.14600
C309        C  0.51707947  0.53532365  0.42285601     0.36300
C310        C  0.99635160  0.44839664  0.04760626     0.36200
N311        N  0.52044277  0.55027117  0.39669779    -0.44100
N312        N  0.99154313  0.43038983  0.07254984    -0.44100
C313        C  0.14602279  0.40261968  0.44041054    -0.00500
C314        C  0.14150351  0.44680300  0.43016441    -0.12400
C315        C  0.16002711  0.46117318  0.40027561     0.01700
C316        C  0.18466959  0.43130448  0.37971507    -0.00600
C317        C  0.19256021  0.38850404  0.39137331    -0.12300
C318        C  0.17395440  0.37415784  0.42151915     0.01600
H319        H  0.12296907  0.47066988  0.44510437     0.14600
H320        H  0.21283602  0.36583313  0.37661885     0.14600
C321        C  0.18596975  0.33120521  0.43309187     0.36300
C322        C  0.15373749  0.50732786  0.39206283     0.36200
N323        N  0.19621812  0.29687845  0.44216768    -0.44100
N324        N  0.14830489  0.54452625  0.38628243    -0.44100
C325        C  0.12981231  0.41145725  0.05878935    -0.00500
C326        C  0.11584111  0.40097926  0.09143768    -0.12400
C327        C  0.13570679  0.41422480  0.11880266     0.01700
C328        C  0.16988569  0.43958482  0.11401511    -0.00600
C329        C  0.18307097  0.45174961  0.08178443    -0.12300
C330        C  0.16382911  0.43749580  0.05419624     0.01600
H331        H  0.08931093  0.38200954  0.09571221     0.14600
H332        H  0.20976242  0.47045230  0.07797877     0.14600
C333        C  0.18159518  0.44752334  0.02163173     0.36300
C334        C  0.12000400  0.40196568  0.15158880     0.36200
N335        N  0.19628930  0.45588502  0.99572138    -0.44100
N336        N  0.10738072  0.39215151  0.17782860    -0.44100
C337        C  0.03741304  0.19606582  0.00605821    -0.00500
C338        C  0.07560109  0.20986944  0.51085795    -0.12400
C339        C  0.08777475  0.25428265  0.50880174     0.01700
C340        C  0.06089126  0.28689865  0.00243133    -0.00600
C341        C  0.02159011  0.27503793  0.99927252    -0.12300
C342        C  0.00991127  0.23036003  0.00073681     0.01600
H343        H  0.09693647  0.18359117  0.51479985     0.14600
H344        H  0.99945052  0.29979897  0.99493674     0.14600
C345        C  0.96933908  0.22065560  0.99679432     0.36300
C346        C  0.12861129  0.26243941  0.51281829     0.36200
N347        N  0.43560024  0.21341259  0.99402772    -0.44100
N348        N  0.16128626  0.26866209  0.51634657    -0.44100
C349        C  0.07385747  0.33835984  0.50057055     0.86100
C350        C  0.09308681  0.35389859  0.53168151    -0.54100
C351        C  0.10799538  0.39585586  0.53042002     0.09100
C352        C  0.10190996  0.41676350  0.99840870     0.20000
C353        C  0.04239462  0.37546736  0.49664147    -0.54800
C354        C  0.05690714  0.41762659  0.49507415     0.09200
C355        C  0.10432145  0.34319666  0.97074550    -0.54100
C356        C  0.11940708  0.38537003  0.96938109     0.09700
H357        H  0.09521212  0.33283882  0.55292936     0.14300
H358        H  0.11263903  0.45145785  0.99814470     0.00000
H359        H  0.01141234  0.37039541  0.49514130     0.14600
H360        H  0.11086453  0.31756695  0.95131397     0.14400
C361        C  0.43663269  0.65391475  0.97259518     0.86100
C362        C  0.41125564  0.64447920  0.00527359    -0.54100
C363        C  0.39876425  0.60177305  0.00759301     0.09100
C364        C  0.41221861  0.57142786  0.97740726     0.20000
C365        C  0.46999501  0.61794109  0.97156230    -0.54800
C366        C  0.45707000  0.57491432  0.97434236     0.09200
C367        C  0.41104190  0.63878107  0.94505621    -0.54300
C368        C  0.39864127  0.59560546  0.94723844     0.09700
H369        H  0.40955426  0.66658104  0.52686099     0.14300
H370        H  0.40171563  0.53664518  0.97980088     0.00000
H371        H  0.50086006  0.62601661  0.97053754     0.14600
H372        H  0.40363216  0.66038370  0.92526744     0.14400
Zr373      Zr  0.23706959  0.53579246  0.68578292     2.17500
O374        O  0.18113379  0.56957149  0.66149066    -0.51700
O375        O  0.28468204  0.55079602  0.63919317    -0.74900
O376        O  0.23523717  0.61745711  0.69187223    -0.81700
O377        O  0.20056889  0.42087464  0.66083262    -0.83400
O378        O  0.26332557  0.63674430  0.73920844    -0.79000
O379        O  0.20509599  0.49282168  0.64410021    -0.90700
O380        O  0.34355980  0.52121710  0.65033825    -0.76600
O381        O  0.29710143  0.55046598  0.70929456    -0.86100
O382        O  0.27556805  0.46838050  0.67828065    -0.85800
O383        O  0.21826804  0.55510419  0.74331241    -0.72600
O384        O  0.19942516  0.47987386  0.71490829    -0.84700
Zr385      Zr  0.28187139  0.44458894  0.78897997     2.26400
Zr386      Zr  0.27907053  0.56827905  0.76677815     2.06300
Zr387      Zr  0.23899878  0.41285910  0.70791653     2.10000
Zr388      Zr  0.33510103  0.48271701  0.70233733     1.78800
O389        O  0.18346840  0.36315334  0.71323303    -0.93500
O390        O  0.39148232  0.53002495  0.70773123    -0.41300
O391        O  0.29964998  0.42548586  0.73139485    -0.77900
O392        O  0.31935809  0.50135438  0.76033981    -0.96600
O393        O  0.24321309  0.51195956  0.79616958    -0.89900
O394        O  0.22164749  0.43033365  0.76548031    -0.92800
C395        C  0.32150748  0.54271746  0.63186678     1.01000
C396        C  0.19342135  0.45240459  0.64120925     1.13900
C397        C  0.24626909  0.64633185  0.71318852     1.04700
O398        O  0.34076106  0.60779011  0.76295979    -0.94900
O399        O  0.30295557  0.56208548  0.82121136    -0.90700
O400        O  0.30694227  0.48857898  0.83409296    -0.83800
C401        C  0.31127357  0.53056046  0.84049104     1.11300
O402        O  0.12137909  0.52990107  0.75810359    -0.96900
Zr403      Zr  0.18342186  0.49783472  0.77284586     1.88900
O404        O  0.23520081  0.42991353  0.83627583    -0.73600
O405        O  0.24539842  0.62313910  0.80585706    -0.52800
O406        O  0.16178975  0.56384826  0.80708304    -0.97500
O407        O  0.12980335  0.44565095  0.77056021    -0.54700
O408        O  0.17880965  0.46826698  0.82852867    -0.74100
C409        C  0.20014166  0.44397541  0.84592627     0.98300
O410        O  0.34113378  0.41048750  0.80799044    -0.62900
O411        O  0.27470704  0.36656180  0.66402048    -0.57700
O412        O  0.28393940  0.36258496  0.78274764    -0.94400
O413        O  0.25843388  0.34535878  0.73412908    -0.92800
O414        O  0.35503476  0.42406438  0.66060721    -0.93200
O415        O  0.39319845  0.44130172  0.71626204    -0.91900
C416        C  0.27451063  0.33419593  0.76029158     1.17100
H417        H  0.28038132  0.45975207  0.65497836     0.33100
H418        H  0.34339246  0.50581578  0.77070007     0.43900
H419        H  0.20820929  0.40578008  0.77600886     0.37400
H420        H  0.20188369  0.58185298  0.74517366     0.33900
H421        H  0.40869110  0.52399041  0.68697590     0.25700
H422        H  0.26182708  0.65003459  0.80458417     0.31600
H423        H  0.18163753  0.56695815  0.82338120     0.37500
H424        H  0.37977621  0.43454523  0.64914109     0.32000
H425        H  0.29750794  0.35387415  0.67434527     0.30900
H426        H  0.18869990  0.34061390  0.69477521     0.32600
H427        H  0.13359264  0.42407730  0.78818714     0.31500
H428        H  0.38930404  0.43821637  0.74066547     0.35500
H429        H  0.35222864  0.39068826  0.78920814     0.28300
H430        H  0.19246758  0.59031367  0.64476198     0.32500
H431        H  0.10315133  0.52919984  0.77853641     0.35300
H432        H  0.25767247  0.34068753  0.66075320     0.28000
H433        H  0.36017506  0.43493919  0.80860502     0.40800
H434        H  0.35938392  0.58818790  0.77357378     0.30900
H435        H  0.38117961  0.56093452  0.70561604     0.38500
H436        H  0.13600468  0.42810473  0.74947715     0.30400
H437        H  0.22107380  0.63197975  0.79588759     0.30400
H438        H  0.16750432  0.58911458  0.67933900     0.30700
C439        C  0.33076937  0.14654952  0.75458502     0.86100
C440        C  0.35994603  0.14302713  0.72330122    -0.54100
C441        C  0.37585092  0.10114509  0.71580270     0.09100
C442        C  0.36198181  0.06631794  0.74136299     0.20000
C443        C  0.30072473  0.10991215  0.74956620    -0.54800
C444        C  0.31706965  0.06841720  0.74231767     0.09200
C445        C  0.35475770  0.12857226  0.78208660    -0.54300
C446        C  0.37131740  0.08674221  0.77517946     0.09700
H447        H  0.36654018  0.17144576  0.70780637     0.14300
H448        H  0.37421778  0.03204483  0.73564506     0.00000
H449        H  0.26923173  0.11630795  0.75118909     0.14600
H450        H  0.35957009  0.14670593  0.80491495     0.14400
C451        C  0.20443073  0.83706464  0.71214281     0.86100
C452        C  0.18521115  0.85154816  0.68119777    -0.54100
C453        C  0.17285801  0.89548458  0.68192820     0.09100
C454        C  0.17945071  0.92067135  0.71478076     0.20000
C455        C  0.23664285  0.87129626  0.71738621    -0.54800
C456        C  0.22354072  0.91478449  0.71821229     0.09200
C457        C  0.17368329  0.84914363  0.74133615    -0.54300
C458        C  0.15991675  0.89261751  0.74298990     0.09700
H459        H  0.18112491  0.82820032  0.66072876     0.14300
H460        H  0.16966227  0.95615553  0.71506314     0.00000
H461        H  0.26647966  0.86264086  0.72221641     0.14600
H462        H  0.16570115  0.82580022  0.76070421     0.14400
Zr463      Zr  0.04033318  0.04198490  0.53135397     2.17500
O464        O  0.09374870  0.07962659  0.55635680    -0.51700
O465        O  0.99335402  0.05680042  0.57979713    -0.74900
O466        O  0.04106185  0.12310315  0.52345215    -0.81700
O467        O  0.07942407  0.92912566  0.55584724    -0.83400
O468        O  0.00986203  0.13634238  0.97771923    -0.79000
O469        O  0.07773699  0.00313477  0.57103638    -0.90700
O470        O  0.43353739  0.03207549  0.56775956    -0.76600
O471        O  0.48114781  0.05687604  0.50793311    -0.86100
O472        O  0.00238067  0.97640467  0.53842169    -0.85800
O473        O  0.05923581  0.05210078  0.97453916    -0.72600
O474        O  0.07874703  0.98223930  0.50223733    -0.84700
Zr475      Zr  0.49658820  0.94391572  0.92862423     2.26400
Zr476      Zr  0.99887279  0.06569043  0.95008237     2.06300
Zr477      Zr  0.04020973  0.91706631  0.50923541     2.10000
Zr478      Zr  0.44190332  0.99266028  0.51425843     1.78800
O479        O  0.09663769  0.86642685  0.49648807    -0.93500
O480        O  0.39068473  0.04875578  0.50765701    -0.41300
O481        O  0.47906607  0.93190177  0.98646665    -0.77900
O482        O  0.45869089  0.00498689  0.95677498    -0.96600
O483        O  0.03498419  0.00486135  0.92156466    -0.89900
O484        O  0.05573001  0.92483467  0.95237859    -0.92800
C485        C  0.45619179  0.05130722  0.58714769     1.01000
C486        C  0.08852970  0.96217774  0.57451735     1.13900
C487        C  0.02760739  0.15040059  0.50292993     1.04700
O488        O  0.43935534  0.11383178  0.95049344    -0.94900
O489        O  0.47292857  0.06038790  0.89790648    -0.90700
O490        O  0.46722223  0.98621733  0.88578652    -0.83800
C491        C  0.46319108  0.02783941  0.87918380     1.11300
O492        O  0.15585930  0.01900606  0.96279947    -0.96900
Zr493      Zr  0.09426335  0.99010597  0.94584831     1.88900
O494        O  0.04268880  0.92419524  0.88055801    -0.73600
O495        O  0.03758866  0.11361033  0.91272867    -0.52800
O496        O  0.11963351  0.05049895  0.91150617    -0.97500
O497        O  0.14611241  0.93270867  0.94533201    -0.54700
O498        O  0.09797592  0.96205211  0.88891375    -0.74100
C499        C  0.07677938  0.93846890  0.87077202     0.98300
O500        O  0.44353405  0.90327033  0.90563079    -0.62900
O501        O  0.50583707  0.87464953  0.55602543    -0.57700
O502        O  0.48909340  0.86328058  0.93751974    -0.94400
O503        O  0.01024361  0.84683701  0.98824436    -0.92800
O504        O  0.41276958  0.94147954  0.55464088    -0.93200
O505        O  0.38496357  0.95502021  0.49553823    -0.91900
C506        C  0.49422357  0.83806222  0.96218993     1.17100
H507        H  0.49562802  0.96952048  0.56219580     0.33100
H508        H  0.43457316  0.00996596  0.94643059     0.43900
H509        H  0.06895177  0.89852564  0.94194546     0.37400
H510        H  0.07574043  0.07794843  0.97261461     0.33900
H511        H  0.37020387  0.04346972  0.52591494     0.25700
H512        H  0.02205115  0.14196750  0.91274282     0.31600
H513        H  0.10309942  0.05103879  0.89257620     0.37500
H514        H  0.38892289  0.95753385  0.56498046     0.32000
H515        H  0.03727690  0.85558317  0.56238747     0.30900
H516        H  0.11833766  0.88062155  0.50729702     0.32600
H517        H  0.14034305  0.91036062  0.92790242     0.31500
H518        H  0.39244243  0.94094016  0.97755400     0.35500
H519        H  0.41994179  0.92302035  0.91026272     0.28300
H520        H  0.08134726  0.10407482  0.57106781     0.32500
H521        H  0.17532750  0.01365317  0.94335890     0.35300
H522        H  0.50975956  0.89262580  0.57643444     0.28000
H523        H  0.44938014  0.90309775  0.88116376     0.40800
H524        H  0.44637257  0.13844296  0.93537782     0.30900
H525        H  0.40212296  0.07761242  0.51400046     0.38500
H526        H  0.14076722  0.91727409  0.96652416     0.30400
H527        H  0.06088016  0.12150178  0.92440670     0.30400
H528        H  0.10861139  0.09480683  0.53796049     0.30700
C529        C  0.13272553  0.90948346  0.77218543    -0.00500
C530        C  0.10587953  0.87920386  0.78707552    -0.12400
C531        C  0.08647441  0.88804294  0.81868312     0.01700
C532        C  0.09306310  0.92846474  0.83600773    -0.00600
C533        C  0.11672372  0.96053483  0.81997140    -0.12300
C534        C  0.13610007  0.95186900  0.78835492     0.01600
H535        H  0.10120996  0.84735866  0.77457068     0.14600
H536        H  0.12059948  0.99261295  0.83250538     0.14600
C537        C  0.15935879  0.98739216  0.77426255     0.36300
C538        C  0.06219052  0.85375578  0.83353024     0.36200
N539        N  0.17703240  0.01709062  0.76357319    -0.44100
N540        N  0.04277560  0.82632134  0.84553642    -0.44100
C541        C  0.15465070  0.91675381  0.65364960    -0.00500
C542        C  0.12456231  0.94953230  0.66042655    -0.12400
C543        C  0.10467230  0.96764385  0.63474521     0.01700
C544        C  0.11328401  0.95121743  0.60169989    -0.00600
C545        C  0.14484894  0.92065375  0.59465658    -0.12300
C546        C  0.16636412  0.90469719  0.61996038     0.01600
H547        H  0.11561058  0.96028978  0.68588838     0.14600
H548        H  0.15293170  0.90939339  0.56911036     0.14600
C549        C  0.20129226  0.87772004  0.61031927     0.36300
C550        C  0.07495577  0.00209128  0.64314638     0.36200
N551        N  0.22942245  0.85632889  0.60263176    -0.44100
N552        N  0.05174166  0.03037167  0.64992670    -0.44100
C553        C  0.29343350  0.02898525  0.73561719    -0.00500
C554        C  0.27977075  0.00302984  0.76229563    -0.12400
C555        C  0.25838526  0.96445886  0.75690608     0.01700
C556        C  0.24881963  0.95287595  0.72454038    -0.00600
C557        C  0.26172725  0.97933890  0.69793548    -0.12300
C558        C  0.28438146  0.01696699  0.70316386     0.01600
H559        H  0.28605477  0.01281351  0.78734239     0.14600
H560        H  0.25406385  0.97053794  0.67307930     0.14600
C561        C  0.29724518  0.04303650  0.67495343     0.36300
C562        C  0.24538637  0.93815048  0.78500311     0.36200
N563        N  0.30705891  0.06351342  0.65196750    -0.44100
N564        N  0.23476260  0.91711288  0.80748897    -0.44100
C565        C  0.44476984  0.03972345  0.84858191    -0.00500
C566        C  0.41858216  0.01008359  0.83505037    -0.12400
C567        C  0.39635358  0.02292268  0.80917244     0.01700
C568        C  0.39899613  0.06691604  0.79741404    -0.00600
C569        C  0.42771942  0.09483667  0.80884649    -0.12300
C570        C  0.45096688  0.08149869  0.83361685     0.01600
H571        H  0.41458036  0.97719154  0.84529839     0.14600
H572        H  0.43175614  0.12770030  0.79851968     0.14600
C573        C  0.48148619  0.11121528  0.84229119     0.36300
C574        C  0.37151538  0.98996702  0.79564076     0.36200
N575        N  0.50605163  0.13531968  0.84847845    -0.44100
N576        N  0.35314226  0.96172398  0.78501437    -0.44100
C577        C  0.39944796  0.09007048  0.68352731    -0.00500
C578        C  0.38797859  0.10999389  0.65463744    -0.12400
C579        C  0.40653525  0.09845673  0.62320972     0.01700
C580        C  0.43813478  0.06722496  0.62009134    -0.00600
C581        C  0.45039120  0.04792169  0.64877712    -0.12300
C582        C  0.43146571  0.05895521  0.68035425     0.01600
H583        H  0.36317982  0.13340704  0.65630931     0.14600
H584        H  0.47384735  0.02282737  0.64632309     0.14600
C585        C  0.44596060  0.03807991  0.70878530     0.36300
C586        C  0.39206102  0.11865100  0.59449657     0.36200
N587        N  0.45766256  0.02086867  0.73136006    -0.44100
N588        N  0.38008743  0.13491789  0.57167114    -0.44100
C589        C  0.23545620  0.69382372  0.70937408    -0.00500
C590        C  0.26359971  0.72410854  0.69746077    -0.12400
C591        C  0.25433601  0.77017041  0.69656366     0.01700
C592        C  0.21670042  0.78701983  0.70976351    -0.00600
C593        C  0.18791120  0.75535852  0.71874113    -0.12300
C594        C  0.19708460  0.70960610  0.71922438     0.01600
H595        H  0.29280049  0.71167248  0.68862203     0.14600
H596        H  0.15784864  0.76621039  0.72583409     0.14600
C597        C  0.16677292  0.67955594  0.73101726     0.36300
C598        C  0.28352043  0.79820306  0.68036413     0.36200
N599        N  0.14247875  0.65558838  0.74058332    -0.44100
N600        N  0.30712792  0.82039397  0.66730231    -0.44100
C601        C  0.28427141  0.28526389  0.76286170    -0.00500
C602        C  0.27735104  0.25637935  0.73587044    -0.12400
C603        C  0.29052249  0.21173621  0.73388957     0.01700
C604        C  0.31178698  0.19390083  0.75927960    -0.00600
C605        C  0.31609248  0.22186671  0.78760502    -0.12300
C606        C  0.30253313  0.26680929  0.78963934     0.01600
H607        H  0.26247851  0.26888527  0.71526725     0.14600
H608        H  0.33047645  0.20972096  0.80836808     0.14600
C609        C  0.30791149  0.29281021  0.81960487     0.36300
C610        C  0.28253275  0.18548332  0.70463205     0.36200
N611        N  0.31205687  0.31344207  0.84374641    -0.44100
N612        N  0.27592263  0.16457770  0.68123790    -0.44100
C613        C  0.37362559  0.57516242  0.92280098    -0.00500
C614        C  0.34088697  0.59988284  0.91425500    -0.12400
C615        C  0.31845875  0.58457625  0.88905873     0.01700
C616        C  0.32901763  0.54387973  0.87139249    -0.00600
C617        C  0.36011750  0.51766917  0.88142687    -0.12300
C618        C  0.38246149  0.53287623  0.90682604     0.01600
H619        H  0.33301376  0.63164366  0.92715502     0.14600
H620        H  0.36839080  0.48625641  0.86817283     0.14600
C621        C  0.41559509  0.50540197  0.91413438     0.36300
C622        C  0.28438269  0.61103610  0.88242844     0.36200
N623        N  0.44176340  0.48231430  0.91939668    -0.44100
N624        N  0.25696730  0.63247895  0.87774079    -0.44100
C625        C  0.38083734  0.58582054  0.54001288    -0.00500
C626        C  0.34155636  0.57333224  0.54074888    -0.12400
C627        C  0.32100334  0.56099962  0.57058868     0.01700
C628        C  0.34047736  0.55908460  0.60008634    -0.00600
C629        C  0.37988728  0.57177815  0.59908491    -0.12300
C630        C  0.39981463  0.58587296  0.56966152     0.01600
H631        H  0.32666963  0.57427185  0.51812301     0.14600
H632        H  0.39511751  0.57127177  0.62154113     0.14600
C633        C  0.43985507  0.60002955  0.57047606     0.36300
C634        C  0.28006131  0.55071578  0.57012386     0.36200
N635        N  0.47188837  0.61155310  0.57095843    -0.44100
N636        N  0.24703629  0.54334619  0.56986115    -0.44100
C637        C  0.45106715  0.70256333  0.96862186    -0.00500
C638        C  0.43994420  0.73636057  0.99311124    -0.12400
C639        C  0.45283936  0.78017531  0.99045644     0.01700
C640        C  0.47774965  0.79242507  0.96278881    -0.00600
C641        C  0.48790934  0.76013219  0.93731385    -0.12300
C642        C  0.47489633  0.71566715  0.93997588     0.01600
H643        H  0.41575087  0.73006866  0.50973506     0.14600
H644        H  0.00853701  0.76464462  0.91705251     0.14600
C645        C  0.48623108  0.68436436  0.91269498     0.36300
C646        C  0.43447003  0.81254350  0.51172755     0.36200
N647        N  0.00003598  0.65348113  0.89369801    -0.44100
N648        N  0.42120575  0.83893759  0.53137321    -0.44100
C649        C  0.48294202  0.53557300  0.97928381    -0.00500
C650        C  0.48011100  0.51153569  0.51081844    -0.12400
C651        C  0.00128168  0.47201014  0.51446946     0.01700
C652        C  0.03233119  0.45549851  0.99194695    -0.00600
C653        C  0.03728269  0.47794987  0.96194884    -0.12300
C654        C  0.01461489  0.51625099  0.95660477     0.01600
H655        H  0.45835970  0.52413652  0.53012654     0.14600
H656        H  0.05778153  0.46456719  0.94205278     0.14600
C657        C  0.52094343  0.54337160  0.92452881     0.36300
C658        C  0.99421383  0.44938579  0.54542306     0.36200
N659        N  0.52636118  0.56082934  0.89941441    -0.44100
N660        N  0.98861114  0.43147966  0.57033766    -0.44100
C661        C  0.14500262  0.40120076  0.94003044    -0.00500
C662        C  0.13969487  0.44535091  0.92992305    -0.12400
C663        C  0.15725331  0.45996657  0.89970578     0.01700
C664        C  0.18274963  0.43086988  0.87922333    -0.00600
C665        C  0.19133772  0.38816289  0.89073720    -0.12300
C666        C  0.17283449  0.37313055  0.92069546     0.01600
H667        H  0.12097281  0.46880224  0.94509900     0.14600
H668        H  0.21183973  0.36590108  0.87584104     0.14600
C669        C  0.18432216  0.32946205  0.93130747     0.36300
C670        C  0.14838132  0.50522852  0.89064807     0.36200
N671        N  0.19385790  0.29439186  0.93949786    -0.44100
N672        N  0.14070461  0.54148033  0.88373947    -0.44100
C673        C  0.12836348  0.41539483  0.55851731    -0.00500
C674        C  0.11337639  0.40701812  0.59129408    -0.12400
C675        C  0.13384941  0.41934779  0.61853354     0.01700
C676        C  0.16985026  0.44118333  0.61336395    -0.00600
C677        C  0.18408896  0.45137231  0.58097379    -0.12300
C678        C  0.16383269  0.43878428  0.55358947     0.01600
H679        H  0.08572298  0.39017767  0.59568056     0.14600
H680        H  0.21204431  0.46750489  0.57695478     0.14600
C681        C  0.18155195  0.44839653  0.52092424     0.36300
C682        C  0.11712304  0.40973858  0.65159180     0.36200
N683        N  0.19612035  0.45679809  0.49497961    -0.44100
N684        N  0.10384169  0.40216968  0.67812528    -0.44100
C685        C  0.03696650  0.19847057  0.50608072    -0.00500
C686        C  0.07624570  0.20743455  0.00991326    -0.12400
C687        C  0.08830124  0.25181669  0.00761553     0.01700
C688        C  0.06068771  0.28933072  0.50268747    -0.00600
C689        C  0.02163087  0.27737285  0.49856874    -0.12300
C690        C  0.00982426  0.23276653  0.50001950     0.01600
H691        H  0.09780448  0.18113761  0.01321282     0.14600
H692        H  0.99973364  0.30201577  0.49349776     0.14600
C693        C  0.96939204  0.22318939  0.49544201     0.36300
C694        C  0.12936262  0.26005433  0.01046849     0.36200
N695        N  0.43573357  0.21160980  0.49620799    -0.44100
N696        N  0.16216789  0.26673701  0.01306190    -0.44100
C697        C  0.57053963  0.33922613  0.00167860     0.86100
C698        C  0.58937096  0.35485062  0.03287097    -0.54100
C699        C  0.60422157  0.39671103  0.03171761     0.09100
C700        C  0.59988050  0.41722675  0.49891709     0.20000
C701        C  0.53911267  0.37612192  0.99728752    -0.54800
C702        C  0.55367617  0.41832885  0.99565581     0.09200
C703        C  0.60227253  0.34304022  0.47234051    -0.54100
C704        C  0.61768045  0.38493181  0.47056793     0.09700
H705        H  0.59136138  0.33378756  0.05414387     0.14300
H706        H  0.61112425  0.45172314  0.49851996     0.00000
H707        H  0.50828398  0.37071792  0.99511347     0.14600
H708        H  0.60890466  0.31692396  0.45328549     0.14400
C709        C  0.93703252  0.65220608  0.47411241     0.86100
C710        C  0.91160489  0.64216208  0.50666170    -0.54100
C711        C  0.89932783  0.59923729  0.50860677     0.09100
C712        C  0.91321694  0.56936322  0.47815774     0.20000
C713        C  0.97062687  0.61651517  0.47298017    -0.54800
C714        C  0.95810843  0.57329952  0.47532993     0.09200
C715        C  0.91169916  0.63720797  0.44635967    -0.54300
C716        C  0.89954546  0.59390998  0.44807765     0.09700
H717        H  0.90558787  0.66302797  0.02725312     0.14300
H718        H  0.90302878  0.53441396  0.48019237     0.00000
H719        H  0.00141146  0.62490799  0.47216167     0.14600
H720        H  0.90429205  0.65905470  0.42671275     0.14400
Zr721      Zr  0.73522268  0.53411275  0.18666109     2.17500
O722        O  0.68192145  0.56826766  0.15907485    -0.51700
O723        O  0.78288339  0.54781613  0.13955520    -0.74900
O724        O  0.73298345  0.61550974  0.19345176    -0.81700
O725        O  0.69640647  0.41977300  0.16268621    -0.83400
O726        O  0.76367634  0.63480908  0.23944419    -0.79000
O727        O  0.70064358  0.49187912  0.14637447    -0.90700
O728        O  0.84203434  0.51967468  0.15120397    -0.76600
O729        O  0.79543116  0.54876009  0.20986507    -0.86100
O730        O  0.77348752  0.46662673  0.17912076    -0.85800
O731        O  0.71662843  0.55341046  0.24437210    -0.72600
O732        O  0.69711031  0.47874110  0.21607498    -0.84700
Zr733      Zr  0.78054160  0.44310089  0.28985025     2.26400
Zr734      Zr  0.77767226  0.56649028  0.26747246     2.06300
Zr735      Zr  0.73640513  0.41166017  0.20888407     2.10000
Zr736      Zr  0.83328055  0.48093224  0.20300538     1.78800
O737        O  0.68130073  0.36188104  0.21773315    -0.93500
O738        O  0.88846492  0.52924157  0.21079910    -0.41300
O739        O  0.79733566  0.42411270  0.23203159    -0.77900
O740        O  0.81798643  0.49964701  0.26098373    -0.96600
O741        O  0.74192605  0.51042089  0.29709463    -0.89900
O742        O  0.72010909  0.42885179  0.26663700    -0.92800
C743        C  0.81982416  0.54021880  0.13234868     1.01000
C744        C  0.68885104  0.45155735  0.14339025     1.13900
C745        C  0.74545708  0.64430780  0.21406356     1.04700
O746        O  0.83844736  0.60760407  0.26542001    -0.94900
O747        O  0.80349888  0.56126750  0.32115015    -0.90700
O748        O  0.80707257  0.48781968  0.33427627    -0.83800
C749        C  0.81202867  0.52982389  0.34041231     1.11300
O750        O  0.62169377  0.53191115  0.25861267    -0.96900
Zr751      Zr  0.68183232  0.49617533  0.27421077     1.88900
O752        O  0.73423712  0.42851432  0.33749438    -0.73600
O753        O  0.74114297  0.61928511  0.30642381    -0.52800
O754        O  0.65888755  0.55773310  0.31244797    -0.97500
O755        O  0.62886575  0.44325499  0.27104230    -0.54700
O756        O  0.67706345  0.46514921  0.32943469    -0.74100
C757        C  0.69887077  0.44164791  0.34697117     0.98300
O758        O  0.83934966  0.40776178  0.30868654    -0.62900
O759        O  0.76832654  0.36476880  0.16350654    -0.57700
O760        O  0.78183823  0.36109975  0.28311295    -0.94400
O761        O  0.75839002  0.34433387  0.23354306    -0.92800
O762        O  0.85717643  0.42404192  0.16100236    -0.93200
O763        O  0.89011794  0.43724170  0.21694335    -0.91900
C764        C  0.77349745  0.33295421  0.26007264     1.17100
H765        H  0.77794257  0.45797264  0.15580778     0.33100
H766        H  0.84210849  0.50426874  0.27121525     0.43900
H767        H  0.70693484  0.40419138  0.27723521     0.37400
H768        H  0.70027983  0.58016525  0.24633273     0.33900
H769        H  0.90764908  0.52185009  0.19148895     0.25700
H770        H  0.75685148  0.64675496  0.30599445     0.31600
H771        H  0.68085416  0.56275087  0.32642498     0.37500
H772        H  0.84498102  0.43178107  0.14051868     0.32000
H773        H  0.79514296  0.35892030  0.17004719     0.30900
H774        H  0.68535543  0.33898546  0.19940670     0.32600
H775        H  0.63617758  0.41760862  0.28435727     0.31500
H776        H  0.89224410  0.44441899  0.24082134     0.35500
H777        H  0.85032702  0.38820325  0.28972326     0.28300
H778        H  0.69447414  0.58995136  0.14367925     0.32500
H779        H  0.60181702  0.52780640  0.27755978     0.35300
H780        H  0.75533246  0.33554606  0.16542879     0.28000
H781        H  0.85864217  0.43191033  0.30961982     0.40800
H782        H  0.83168753  0.63542026  0.27888355     0.30900
H783        H  0.87857565  0.55977674  0.20667592     0.38500
H784        H  0.63171856  0.43144095  0.24774584     0.30400
H785        H  0.71718710  0.62759658  0.29573128     0.30400
H786        H  0.66637181  0.58678661  0.17649265     0.30700
C787        C  0.82856105  0.14497646  0.25402581     0.86100
C788        C  0.85736392  0.14193279  0.22251113    -0.54100
C789        C  0.87370798  0.10033935  0.21489843     0.09100
C790        C  0.86042635  0.06516261  0.24031915     0.20000
C791        C  0.79874795  0.10801116  0.24911613    -0.54800
C792        C  0.81544728  0.06670007  0.24160438     0.09200
C793        C  0.85306292  0.12703441  0.28127633    -0.54300
C794        C  0.86998800  0.08541848  0.27411400     0.09700
H795        H  0.86355830  0.17045384  0.20701565     0.14300
H796        H  0.87308946  0.03115412  0.23421803     0.00000
H797        H  0.76719716  0.11405075  0.25100488     0.14600
H798        H  0.85785074  0.14498485  0.30417716     0.14400
C799        C  0.70294960  0.83428272  0.21271219     0.86100
C800        C  0.68394635  0.84866804  0.18165403    -0.54100
C801        C  0.67242902  0.89281816  0.18208938     0.09100
C802        C  0.67969547  0.91836567  0.21463610     0.20000
C803        C  0.73606996  0.86757150  0.21721174    -0.54800
C804        C  0.72376196  0.91142090  0.21787423     0.09200
C805        C  0.67270352  0.84773555  0.24203741    -0.54300
C806        C  0.65971590  0.89137073  0.24318596     0.09700
H807        H  0.67944782  0.82523613  0.16132752     0.14300
H808        H  0.67054319  0.95406885  0.21465447     0.00000
H809        H  0.76607170  0.85773770  0.22084648     0.14600
H810        H  0.66483080  0.82567335  0.26224236     0.14400
Zr811      Zr  0.54153154  0.04196613  0.03217929     2.17500
O812        O  0.59340083  0.07905118  0.05962280    -0.51700
O813        O  0.49464507  0.05715731  0.08056063    -0.74900
O814        O  0.54188314  0.12322054  0.02446488    -0.81700
O815        O  0.57936233  0.92845336  0.05624094    -0.83400
O816        O  0.51047383  0.13740671  0.47884687    -0.79000
O817        O  0.57838029  0.00235822  0.07178186    -0.90700
O818        O  0.93352160  0.03097402  0.06779283    -0.76600
O819        O  0.98030625  0.05545190  0.00775958    -0.86100
O820        O  0.50252012  0.97715364  0.03903578    -0.85800
O821        O  0.55999082  0.05311373  0.47451936    -0.72600
O822        O  0.57928502  0.98163204  0.00310262    -0.84700
Zr823      Zr  0.99605865  0.94255130  0.42811719     2.26400
Zr824      Zr  0.49960294  0.06748035  0.45031390     2.06300
Zr825      Zr  0.53964882  0.91723394  0.00983229     2.10000
Zr826      Zr  0.94144719  0.99093940  0.01436240     1.78800
O827        O  0.59512644  0.86493463  0.99839686    -0.93500
O828        O  0.88885183  0.04578105  0.00894625    -0.41300
O829        O  0.97930772  0.93025113  0.48603384    -0.77900
O830        O  0.95724541  0.00313022  0.45637991    -0.96600
O831        O  0.53546122  0.00668653  0.42168066    -0.89900
O832        O  0.55557080  0.92601221  0.45232526    -0.92800
C833        C  0.95589771  0.05095179  0.08706645     1.01000
C834        C  0.58869111  0.96122767  0.07510536     1.13900
C835        C  0.52792251  0.15071694  0.00429749     1.04700
O836        O  0.93453202  0.10931452  0.45260651    -0.94900
O837        O  0.97264205  0.05888464  0.39643996    -0.90700
O838        O  0.96599764  0.98464818  0.38514647    -0.83800
C839        C  0.96262395  0.02620904  0.37794192     1.11300
O840        O  0.65484699  0.02040923  0.46509348    -0.96900
Zr841      Zr  0.59467004  0.99077211  0.44577659     1.88900
O842        O  0.54189104  0.92648605  0.38002770    -0.73600
O843        O  0.53743684  0.11600426  0.41282958    -0.52800
O844        O  0.62380505  0.04850782  0.41086688    -0.97500
O845        O  0.64529866  0.93202272  0.44590866    -0.54700
O846        O  0.59771014  0.96329470  0.38854081    -0.74100
C847        C  0.57616822  0.94024894  0.37027957     0.98300
O848        O  0.94623739  0.89949199  0.40245884    -0.62900
O849        O  0.00748157  0.87038473  0.05497826    -0.57700
O850        O  0.98794659  0.86216476  0.43911542    -0.94400
O851        O  0.50969573  0.84881813  0.48737639    -0.92800
O852        O  0.91341864  0.93656893  0.05278838    -0.93200
O853        O  0.88260162  0.95635871  0.99662923    -0.91900
C854        C  0.99410716  0.83688951  0.46359699     1.17100
H855        H  0.99535892  0.96829650  0.06235117     0.33100
H856        H  0.93298695  0.00755180  0.44612961     0.43900
H857        H  0.56840305  0.89953624  0.44180995     0.37400
H858        H  0.57657846  0.07889285  0.47266334     0.33900
H859        H  0.87103992  0.04333858  0.02946984     0.25700
H860        H  0.52195901  0.14446246  0.41359230     0.31600
H861        H  0.60335286  0.05653309  0.39604867     0.37500
H862        H  0.89319766  0.95367206  0.06736488     0.32000
H863        H  0.53246291  0.84938786  0.05829988     0.30900
H864        H  0.59256347  0.84363285  0.01671118     0.32600
H865        H  0.63743618  0.90783788  0.43071454     0.31500
H866        H  0.89873540  0.92316802  0.48373121     0.35500
H867        H  0.92200346  0.91846144  0.40536630     0.28300
H868        H  0.58014198  0.10313775  0.07416356     0.32500
H869        H  0.67596674  0.01171346  0.44757007     0.35300
H870        H  0.00958342  0.88848141  0.07568727     0.28000
H871        H  0.95417369  0.89887436  0.37825970     0.40800
H872        H  0.93967394  0.13459911  0.43767633     0.30900
H873        H  0.90116516  0.07523919  0.01148920     0.38500
H874        H  0.64156115  0.91958592  0.46837407     0.30400
H875        H  0.56110924  0.12344749  0.42414586     0.30400
H876        H  0.60899135  0.09473897  0.04190252     0.30700
C877        C  0.63260717  0.90915866  0.27214224    -0.00500
C878        C  0.60482759  0.87981643  0.28693341    -0.12400
C879        C  0.58505387  0.88954339  0.31828843     0.01700
C880        C  0.59238298  0.92983926  0.33551580    -0.00600
C881        C  0.61702736  0.96102793  0.31951522    -0.12300
C882        C  0.63674530  0.95148062  0.28813496     0.01600
H883        H  0.59968549  0.84800285  0.27456242     0.14600
H884        H  0.62151477  0.99301767  0.33194820     0.14600
C885        C  0.66126628  0.98597898  0.27413207     0.36300
C886        C  0.55953855  0.85627205  0.33303853     0.36200
N887        N  0.67993479  0.01497278  0.26354977    -0.44100
N888        N  0.53906568  0.82981334  0.34508097    -0.44100
C889        C  0.65424969  0.91409704  0.15391500    -0.00500
C890        C  0.62400440  0.94653279  0.16100558    -0.12400
C891        C  0.60411739  0.96508861  0.13554127     0.01700
C892        C  0.61320267  0.94973049  0.10227913    -0.00600
C893        C  0.64484293  0.91936253  0.09496964    -0.12300
C894        C  0.66602176  0.90250472  0.12016054     0.01600
H895        H  0.61489135  0.95658218  0.18659291     0.14600
H896        H  0.65306586  0.90871224  0.06931269     0.14600
C897        C  0.70037112  0.87468495  0.11028646     0.36300
C898        C  0.57379661  0.99865175  0.14452178     0.36200
N899        N  0.72791247  0.85254273  0.10209925    -0.44100
N900        N  0.55007497  0.02610629  0.15214378    -0.44100
C901        C  0.79222967  0.02685814  0.23497103    -0.00500
C902        C  0.77981367  0.00010610  0.26156020    -0.12400
C903        C  0.75942190  0.96078824  0.25614292     0.01700
C904        C  0.74948661  0.94922234  0.22387856    -0.00600
C905        C  0.76110824  0.97647581  0.19738204    -0.12300
C906        C  0.78291544  0.01480179  0.20259279     0.01600
H907        H  0.78637443  0.00980371  0.28655216     0.14600
H908        H  0.75299809  0.96781827  0.17263590     0.14600
C909        C  0.79478238  0.04140870  0.17442234     0.36300
C910        C  0.74760667  0.93380643  0.28417274     0.36200
N911        N  0.80387955  0.06223529  0.15145108    -0.44100
N912        N  0.73801086  0.91220673  0.30661818    -0.44100
C913        C  0.94448810  0.03805482  0.34700068    -0.00500
C914        C  0.91901212  0.00808876  0.33279698    -0.12400
C915        C  0.89652205  0.02113534  0.30705974     0.01700
C916        C  0.89809565  0.06560726  0.29611419    -0.00600
C917        C  0.92633461  0.09382403  0.30796951    -0.12300
C918        C  0.94990400  0.08034279  0.33251607     0.01600
H919        H  0.91568940  0.97477992  0.34244696     0.14600
H920        H  0.92976312  0.12705551  0.29813982     0.14600
C921        C  0.97984699  0.11065571  0.34146908     0.36300
C922        C  0.87250342  0.98794133  0.29276642     0.36200
N923        N  0.00388672  0.13541432  0.34774906    -0.44100
N924        N  0.85476834  0.95973333  0.28132016    -0.44100
C925        C  0.89780017  0.08986199  0.18285103    -0.00500
C926        C  0.88565142  0.10840417  0.15372310    -0.12400
C927        C  0.90470474  0.09695257  0.12246104     0.01700
C928        C  0.93755069  0.06742395  0.11980280    -0.00600
C929        C  0.95069469  0.04998657  0.14881599    -0.12300
C930        C  0.93112402  0.06065617  0.18019528     0.01600
H931        H  0.85998463  0.13054254  0.15513003     0.14600
H932        H  0.97517498  0.02624004  0.14676284     0.14600
C933        C  0.94603222  0.04097402  0.20891819     0.36300
C934        C  0.88943024  0.11536319  0.09343889     0.36200
N935        N  0.95814335  0.02453606  0.23163026    -0.44100
N936        N  0.87682251  0.13014951  0.07034329    -0.44100
C937        C  0.73423915  0.69155270  0.21072161    -0.00500
C938        C  0.75996143  0.72108237  0.19427812    -0.12400
C939        C  0.74997084  0.76692600  0.19317823     0.01700
C940        C  0.71472453  0.78424002  0.21073108    -0.00600
C941        C  0.68782239  0.75306511  0.22427159    -0.12300
C942        C  0.69749151  0.70759520  0.22489330     0.01600
H943        H  0.78759892  0.70824667  0.18202105     0.14600
H944        H  0.65857149  0.76362673  0.23416838     0.14600
C945        C  0.66915502  0.67797663  0.24062370     0.36300
C946        C  0.77540294  0.79447441  0.17241925     0.36200
N947        N  0.64638256  0.65440576  0.25325115    -0.44100
N948        N  0.79571743  0.81621067  0.15541592    -0.44100
C949        C  0.78301373  0.28399189  0.26257699    -0.00500
C950        C  0.77496603  0.25499130  0.23596629    -0.12400
C951        C  0.78775845  0.21020427  0.23392755     0.01700
C952        C  0.80949609  0.19228029  0.25899766    -0.00600
C953        C  0.81480147  0.22040934  0.28702848    -0.12300
C954        C  0.80189221  0.26555516  0.28900469     0.01600
H955        H  0.75955919  0.26752450  0.21566747     0.14600
H956        H  0.82976383  0.20835403  0.30749452     0.14600
C957        C  0.80898292  0.29193584  0.31838473     0.36300
C958        C  0.77927706  0.18405753  0.20476042     0.36200
N959        N  0.81452030  0.31301854  0.34199385    -0.44100
N960        N  0.77240442  0.16332624  0.18136039    -0.44100
C961        C  0.87475793  0.57384312  0.42315705    -0.00500
C962        C  0.84198322  0.59860215  0.41465749    -0.12400
C963        C  0.81981767  0.58377102  0.38908060     0.01700
C964        C  0.83047527  0.54331558  0.37105496    -0.00600
C965        C  0.86192591  0.51731513  0.38073242    -0.12300
C966        C  0.88407394  0.53214380  0.40644523     0.01600
H967        H  0.83386878  0.63006166  0.42790289     0.14600
H968        H  0.87045544  0.48625311  0.36709983     0.14600
C969        C  0.91740983  0.50486029  0.41351627     0.36300
C970        C  0.78593422  0.61054687  0.38239652     0.36200
N971        N  0.94378374  0.48201037  0.41864716    -0.44100
N972        N  0.75873668  0.63229867  0.37760369    -0.44100
C973        C  0.87944536  0.58133542  0.03982988    -0.00500
C974        C  0.83999574  0.56945736  0.04075612    -0.12400
C975        C  0.81939873  0.55749932  0.07071586     0.01700
C976        C  0.83885026  0.55584230  0.10026416    -0.00600
C977        C  0.87853692  0.56760696  0.09895941    -0.12300
C978        C  0.89863852  0.58080026  0.06934202     0.01600
H979        H  0.82501980  0.57057554  0.01818393     0.14600
H980        H  0.89394120  0.56694896  0.12131607     0.14600
C981        C  0.93918588  0.59323542  0.06976197     0.36300
C982        C  0.77849091  0.54713581  0.07020703     0.36200
N983        N  0.97170806  0.60308521  0.06987023    -0.44100
N984        N  0.74553195  0.53959447  0.06966821    -0.44100
C985        C  0.95125476  0.70102321  0.47030321    -0.00500
C986        C  0.93965610  0.73489624  0.49462864    -0.12400
C987        C  0.95296070  0.77869147  0.49221619     0.01700
C988        C  0.97790664  0.79103395  0.46454620    -0.00600
C989        C  0.98848700  0.75859811  0.43928072    -0.12300
C990        C  0.97560126  0.71409484  0.44193736     0.01600
H991        H  0.91916293  0.72657056  0.01446606     0.14600
H992        H  0.51282883  0.76566372  0.41692790     0.14600
C993        C  0.98761380  0.68269684  0.41488093     0.36300
C994        C  0.93735043  0.80906884  0.01606850     0.36200
N995        N  0.50542281  0.65430189  0.39407831    -0.44100
N996        N  0.92542788  0.83486100  0.03667278    -0.44100
C997        C  0.98455614  0.53424025  0.47999258    -0.00500
C998        C  0.97880833  0.50775433  0.01049660    -0.12400
C999        C  0.49746119  0.47237922  0.01353271     0.01700
C1000       C  0.53104873  0.45652975  0.49144051    -0.00600
C1001       C  0.53508974  0.47747313  0.46074980    -0.12300
C1002       C  0.51273870  0.51599465  0.45523585     0.01600
H1003       H  0.95548491  0.51840140  0.02908539     0.14600
H1004       H  0.55482451  0.46295624  0.44067389     0.14600
C1005       C  0.02252773  0.54304390  0.42524012     0.36300
C1006       C  0.48801378  0.44821254  0.04347781     0.36200
N1007       N  0.02845343  0.56077088  0.40029183    -0.44100
N1008       N  0.48035127  0.42865930  0.06738102    -0.44100
C1009       C  0.64344288  0.39986606  0.44110431    -0.00500
C1010       C  0.63862301  0.44397000  0.43085398    -0.12400
C1011       C  0.65709511  0.45844982  0.40101104     0.01700
C1012       C  0.68167371  0.42869221  0.38032177    -0.00600
C1013       C  0.68942942  0.38570840  0.39171663    -0.12300
C1014       C  0.67098463  0.37123692  0.42189212     0.01600
H1015       H  0.61963145  0.46760611  0.44566349     0.14600
H1016       H  0.70945245  0.36301471  0.37672202     0.14600
C1017       C  0.68245334  0.32775615  0.43290121     0.36300
C1018       C  0.65079703  0.50464612  0.39299819     0.36200
N1019       N  0.69222789  0.29290371  0.44135041    -0.44100
N1020       N  0.64530237  0.54192363  0.38750808    -0.44100
C1021       C  0.62427537  0.41590304  0.06009991    -0.00500
C1022       C  0.60867133  0.40777223  0.09278772    -0.12400
C1023       C  0.62900101  0.41948078  0.12028015     0.01700
C1024       C  0.66528471  0.44076638  0.11544780    -0.00600
C1025       C  0.68020985  0.45049460  0.08312641    -0.12300
C1026       C  0.66033172  0.43806581  0.05549698     0.01600
H1027       H  0.58075828  0.39138788  0.09687930     0.14600
H1028       H  0.70855400  0.46581025  0.07936462     0.14600
C1029       C  0.67926838  0.44571265  0.02289463     0.36300
C1030       C  0.61202722  0.40952212  0.15319203     0.36200
N1031       N  0.69490797  0.45214097  0.99695496    -0.44100
N1032       N  0.59859186  0.40156851  0.17960486    -0.44100
C1033       C  0.53593484  0.19894843  0.00824198    -0.00500
C1034       C  0.57528098  0.20890870  0.51195450    -0.12400
C1035       C  0.58664848  0.25342841  0.50957450     0.01700
C1036       C  0.55795255  0.29015073  0.00421292    -0.00600
C1037       C  0.51884015  0.27755210  0.00123425    -0.12300
C1038       C  0.50792696  0.23261182  0.00266805     0.01600
H1039       H  0.59726994  0.18298304  0.51499853     0.14600
H1040       H  0.49635263  0.30193100  0.99694123     0.14600
C1041       C  0.46774657  0.22190237  0.99798149     0.36300
C1042       C  0.62771590  0.26236824  0.51182113     0.36200
N1043       N  0.93682703  0.21305808  0.99359064    -0.44100
N1044       N  0.66053794  0.26968697  0.51373194    -0.44100
C1045       C  0.57149544  0.33677517  0.50191994     0.86100
C1046       C  0.59098005  0.35207542  0.53289227    -0.54100
C1047       C  0.60629778  0.39368769  0.53145113     0.09100
C1048       C  0.59808298  0.42019501  0.99897883     0.20000
C1049       C  0.54029090  0.37408691  0.49800870    -0.54800
C1050       C  0.55538661  0.41601099  0.49628944     0.09200
C1051       C  0.60163431  0.34594775  0.97242940    -0.54100
C1052       C  0.61669541  0.38813508  0.97076898     0.09700
H1053       H  0.59293815  0.33110324  0.55422251     0.14300
H1054       H  0.60893229  0.45485443  0.99876344     0.00000
H1055       H  0.50928145  0.36917717  0.49638804     0.14600
H1056       H  0.60852650  0.31985657  0.95343058     0.14400
C1057       C  0.93795847  0.64942178  0.97379535     0.86100
C1058       C  0.91212110  0.64007862  0.00622961    -0.54100
C1059       C  0.89959334  0.59733540  0.00854678     0.09100
C1060       C  0.91364391  0.56681769  0.97848794     0.20000
C1061       C  0.97135994  0.61358581  0.97331918    -0.54800
C1062       C  0.95857896  0.57049486  0.97601271     0.09200
C1063       C  0.91298315  0.63407810  0.94593747    -0.54300
C1064       C  0.90046905  0.59095705  0.94799071     0.09700
H1065       H  0.90494021  0.66487135  0.52781602     0.14300
H1066       H  0.90325141  0.53199447  0.98085213     0.00000
H1067       H  0.00218222  0.62178293  0.97260165     0.14600
H1068       H  0.90596357  0.65565550  0.92601208     0.14400
Zr1069     Zr  0.73613123  0.53200620  0.68616634     2.17500
O1070       O  0.68045364  0.56684219  0.66210297    -0.51700
O1071       O  0.78284152  0.54538666  0.63847202    -0.74900
O1072       O  0.73597759  0.61364672  0.69134040    -0.81700
O1073       O  0.69875771  0.41757228  0.66164408    -0.83400
O1074       O  0.76181805  0.63253838  0.73981148    -0.79000
O1075       O  0.70269486  0.48975713  0.64532068    -0.90700
O1076       O  0.84173719  0.51622213  0.64984985    -0.76600
O1077       O  0.79616453  0.54679397  0.70953514    -0.86100
O1078       O  0.77444906  0.46440316  0.67872269    -0.85800
O1079       O  0.71770222  0.55132759  0.74380474    -0.72600
O1080       O  0.69834010  0.47638931  0.71565178    -0.84700
Zr1081     Zr  0.78142206  0.44085443  0.78959523     2.26400
Zr1082     Zr  0.77859582  0.56447077  0.76710041     2.06300
Zr1083     Zr  0.73765980  0.40918667  0.70856783     2.10000
Zr1084     Zr  0.83409412  0.47916146  0.70262023     1.78800
O1085       O  0.68144556  0.36044169  0.71371166    -0.93500
O1086       O  0.88775197  0.53028886  0.70859610    -0.41300
O1087       O  0.79845610  0.42203731  0.73177409    -0.77900
O1088       O  0.81887914  0.49756526  0.76067878    -0.96600
O1089       O  0.74287511  0.50834722  0.79676783    -0.89900
O1090       O  0.72105356  0.42671410  0.76629135    -0.92800
C1091       C  0.81965409  0.53722867  0.63109214     1.01000
C1092       C  0.69118774  0.44934933  0.64232486     1.13900
C1093       C  0.74597371  0.64227529  0.71325473     1.04700
O1094       O  0.83858635  0.60701773  0.76224821    -0.94900
O1095       O  0.80507497  0.55876298  0.82057543    -0.90700
O1096       O  0.80781331  0.48541062  0.83408569    -0.83800
C1097       C  0.81314559  0.52735866  0.84005209     1.11300
O1098       O  0.62104396  0.52639940  0.75861171    -0.96900
Zr1099     Zr  0.68290432  0.49430894  0.77370529     1.88900
O1100       O  0.73484663  0.42809018  0.83754859    -0.73600
O1101       O  0.74459569  0.61784886  0.80709577    -0.52800
O1102       O  0.65980192  0.56023429  0.80739570    -0.97500
O1103       O  0.63063638  0.44005343  0.77330699    -0.54700
O1104       O  0.67903947  0.46786953  0.83024918    -0.74100
C1105       C  0.70028814  0.44349080  0.84763414     0.98300
O1106       O  0.83996430  0.40580166  0.80920635    -0.62900
O1107       O  0.77370012  0.36253753  0.66504346    -0.57700
O1108       O  0.78282012  0.35849384  0.78291344    -0.94400
O1109       O  0.75638959  0.34123408  0.73469631    -0.92800
O1110       O  0.85922198  0.42158822  0.66171074    -0.93200
O1111       O  0.89168834  0.43832350  0.71815008    -0.91900
C1112       C  0.77277930  0.32999778  0.76069141     1.17100
H1113       H  0.77921310  0.45558793  0.65545583     0.33100
H1114       H  0.84305383  0.50215021  0.77084856     0.43900
H1115       H  0.70780493  0.40216211  0.77696954     0.37400
H1116       H  0.70135964  0.57808517  0.74561957     0.33900
H1117       H  0.90585460  0.52451985  0.68832286     0.25700
H1118       H  0.76114673  0.64465202  0.80653189     0.31600
H1119       H  0.67977809  0.56443429  0.82345579     0.37500
H1120       H  0.88030613  0.43615864  0.64785850     0.32000
H1121       H  0.79574311  0.34883205  0.67579587     0.30900
H1122       H  0.69011512  0.33285439  0.70063149     0.32600
H1123       H  0.63799971  0.41618037  0.78820498     0.31500
H1124       H  0.88182040  0.42074623  0.73738166     0.35500
H1125       H  0.85066863  0.38507165  0.79085724     0.28300
H1126       H  0.69203791  0.58627417  0.64457961     0.32500
H1127       H  0.60193969  0.52274838  0.77817988     0.35300
H1128       H  0.75614242  0.33736388  0.66104853     0.28000
H1129       H  0.85956931  0.42970471  0.80932677     0.40800
H1130       H  0.83455220  0.63065999  0.78004454     0.30900
H1131       H  0.87622399  0.56041786  0.70561892     0.38500
H1132       H  0.63388963  0.42582591  0.75072059     0.30400
H1133       H  0.72051643  0.62734780  0.79704747     0.30400
H1134       H  0.66783557  0.58770600  0.67959435     0.30700
C1135       C  0.82896163  0.14190349  0.75419753     0.86100
C1136       C  0.85774080  0.13948940  0.72266671    -0.54100
C1137       C  0.87458143  0.09815490  0.71483357     0.09100
C1138       C  0.86172608  0.06253552  0.74003007     0.20000
C1139       C  0.79960929  0.10448664  0.74906164    -0.54800
C1140       C  0.81674248  0.06345962  0.74119973     0.09200
C1141       C  0.85373860  0.12402641  0.78132884    -0.54300
C1142       C  0.87109402  0.08266657  0.77394221     0.09700
H1143       H  0.86352842  0.16823556  0.70731607     0.14300
H1144       H  0.87476860  0.02870617  0.73381700     0.00000
H1145       H  0.76800443  0.11004928  0.75097139     0.14600
H1146       H  0.85841350  0.14188217  0.80429878     0.14400
C1147       C  0.70213411  0.83232577  0.71287188     0.86100
C1148       C  0.68253371  0.84600112  0.68195913    -0.54100
C1149       C  0.67134667  0.89019587  0.68183905     0.09100
C1150       C  0.67955050  0.91665086  0.71376211     0.20000
C1151       C  0.73559066  0.86542563  0.71640315    -0.54800
C1152       C  0.72369430  0.90936749  0.71657640     0.09200
C1153       C  0.67242494  0.84687395  0.74235444    -0.54300
C1154       C  0.65978610  0.89069240  0.74293779     0.09700
H1155       H  0.67722395  0.82199893  0.66221116     0.14300
H1156       H  0.67067477  0.95239787  0.71329471     0.00000
H1157       H  0.76555884  0.85534198  0.71996364     0.14600
H1158       H  0.66467380  0.82562610  0.76305088     0.14400
Zr1159     Zr  0.54056538  0.04022396  0.53221412     2.17500
O1160       O  0.59318855  0.07645522  0.55926213    -0.51700
O1161       O  0.49313816  0.05675235  0.58018048    -0.74900
O1162       O  0.54176462  0.12134532  0.52460417    -0.81700
O1163       O  0.57829075  0.92582945  0.55560080    -0.83400
O1164       O  0.50965508  0.13912442  0.97920979    -0.79000
O1165       O  0.57613740  0.99940153  0.57221114    -0.90700
O1166       O  0.93386127  0.03191675  0.56715887    -0.76600
O1167       O  0.97977443  0.05662589  0.50807566    -0.86100
O1168       O  0.50094141  0.97596681  0.53897987    -0.85800
O1169       O  0.56034071  0.05519344  0.97453484    -0.72600
O1170       O  0.57785579  0.97927590  0.50358525    -0.84700
Zr1171     Zr  0.99568749  0.94051332  0.92846779     2.26400
Zr1172     Zr  0.49951833  0.06888375  0.95090366     2.06300
Zr1173     Zr  0.53747785  0.91547274  0.51005973     2.10000
Zr1174     Zr  0.94237076  0.99084358  0.51441918     1.78800
O1175       O  0.59108520  0.86016002  0.50163085    -0.93500
O1176       O  0.88711171  0.04203571  0.50878604    -0.41300
O1177       O  0.97723946  0.92907007  0.98625975    -0.77900
O1178       O  0.95776857  0.00201965  0.95624853    -0.96600
O1179       O  0.53549160  0.00858056  0.92160204    -0.89900
O1180       O  0.55693110  0.92808882  0.95197799    -0.92800
C1181       C  0.95641161  0.05118917  0.58661411     1.01000
C1182       C  0.58699598  0.95828501  0.57499339     1.13900
C1183       C  0.52838960  0.14884447  0.50417531     1.04700
O1184       O  0.93761410  0.10885720  0.95060033    -0.94900
O1185       O  0.97510933  0.05689531  0.89574267    -0.90700
O1186       O  0.96704085  0.98279306  0.88504431    -0.83800
C1187       C  0.96449980  0.02426031  0.87747818     1.11300
O1188       O  0.65604877  0.02271575  0.96339373    -0.96900
Zr1189     Zr  0.59521158  0.99348486  0.94510126     1.88900
O1190       O  0.54263243  0.92840430  0.87987462    -0.73600
O1191       O  0.53840698  0.11619290  0.91325340    -0.52800
O1192       O  0.62141345  0.05368029  0.91100871    -0.97500
O1193       O  0.64693864  0.93576906  0.94343962    -0.54700
O1194       O  0.59825921  0.96590182  0.88779104    -0.74100
C1195       C  0.57674749  0.94240987  0.86978401     0.98300
O1196       O  0.94447995  0.89902233  0.90344976    -0.62900
O1197       O  0.01419747  0.87178846  0.55500317    -0.57700
O1198       O  0.98751232  0.85993008  0.93802548    -0.94400
O1199       O  0.51059610  0.85048093  0.98826191    -0.92800
O1200       O  0.91669269  0.93869048  0.55559258    -0.93200
O1201       O  0.88680226  0.94955364  0.49659050    -0.91900
C1202       C  0.99348868  0.83445131  0.96239340     1.17100
H1203       H  0.99758568  0.96995656  0.56166554     0.33100
H1204       H  0.93381919  0.00705633  0.94566888     0.43900
H1205       H  0.56992740  0.90182027  0.94128833     0.37400
H1206       H  0.57668344  0.08118558  0.97271308     0.33900
H1207       H  0.86911541  0.03792945  0.52898285     0.25700
H1208       H  0.52321088  0.14481119  0.91358777     0.31600
H1209       H  0.60351313  0.05629924  0.89314142     0.37500
H1210       H  0.89046838  0.95122943  0.56380223     0.32000
H1211       H  0.52262882  0.84748728  0.55744128     0.30900
H1212       H  0.57994758  0.83206088  0.51026976     0.32600
H1213       H  0.63898286  0.91170310  0.92818931     0.31500
H1214       H  0.89127658  0.94121006  0.97498096     0.35500
H1215       H  0.92062414  0.91856713  0.90690045     0.28300
H1216       H  0.58010287  0.09956267  0.57480756     0.32500
H1217       H  0.67613089  0.01710739  0.94443254     0.35300
H1218       H  0.00586166  0.89323739  0.57358609     0.28000
H1219       H  0.95181729  0.89853557  0.87916005     0.40800
H1220       H  0.94126108  0.12819266  0.93114627     0.30900
H1221       H  0.89770796  0.07229573  0.51199385     0.38500
H1222       H  0.64413459  0.92280517  0.96576075     0.30400
H1223       H  0.56194524  0.12361981  0.92474428     0.30400
H1224       H  0.60799671  0.09336548  0.54177970     0.30700
C1225       C  0.63276169  0.90947272  0.77163132    -0.00500
C1226       C  0.60503704  0.88054240  0.78686732    -0.12400
C1227       C  0.58560797  0.89076013  0.81824074     0.01700
C1228       C  0.59281973  0.93150227  0.83497019    -0.00600
C1229       C  0.61725851  0.96248041  0.81838912    -0.12300
C1230       C  0.63684828  0.95224855  0.78698441     0.01600
H1231       H  0.59982691  0.84847020  0.77489980     0.14600
H1232       H  0.62171341  0.99477583  0.83037843     0.14600
C1233       C  0.66109442  0.98649082  0.77220485     0.36300
C1234       C  0.56094597  0.85714638  0.83353359     0.36200
N1235       N  0.67959539  0.01515716  0.76087552    -0.44100
N1236       N  0.54139181  0.82994724  0.84569132    -0.44100
C1237       C  0.65251620  0.91066219  0.65371775    -0.00500
C1238       C  0.62245332  0.94326583  0.66083480    -0.12400
C1239       C  0.60244596  0.96174495  0.63543411     0.01700
C1240       C  0.61135057  0.94631511  0.60216411    -0.00600
C1241       C  0.64254823  0.91529375  0.59485788    -0.12300
C1242       C  0.66368230  0.89827936  0.62001566     0.01600
H1243       H  0.61367984  0.95362127  0.68642614     0.14600
H1244       H  0.65047636  0.90425813  0.56923700     0.14600
C1245       C  0.69734398  0.86932950  0.61023959     0.36300
C1246       C  0.57223908  0.99537037  0.64456165     0.36200
N1247       N  0.72430716  0.84609788  0.60244594    -0.44100
N1248       N  0.54863628  0.02285108  0.65244856    -0.44100
C1249       C  0.79381386  0.02347571  0.73412907    -0.00500
C1250       C  0.78014037  0.99734808  0.76068030    -0.12400
C1251       C  0.75909218  0.95856976  0.75515277     0.01700
C1252       C  0.74979888  0.94682559  0.72272205    -0.00600
C1253       C  0.76283828  0.97334913  0.69617467    -0.12300
C1254       C  0.78521143  0.01122763  0.70156501     0.01600
H1255       H  0.78607838  0.00723309  0.78579527     0.14600
H1256       H  0.75527943  0.96458436  0.67128094     0.14600
C1257       C  0.79792292  0.03750591  0.67343439     0.36300
C1258       C  0.74611048  0.93233350  0.78328338     0.36200
N1259       N  0.80753746  0.05810997  0.65046753    -0.44100
N1260       N  0.73571540  0.91149279  0.80593705    -0.44100
C1261       C  0.94639542  0.03586868  0.84646655    -0.00500
C1262       C  0.92049566  0.00595485  0.83275479    -0.12400
C1263       C  0.89772360  0.01881079  0.80716969     0.01700
C1264       C  0.89952044  0.06303727  0.79577472    -0.00600
C1265       C  0.92818298  0.09117048  0.80709536    -0.12300
C1266       C  0.95203742  0.07781627  0.83153820     0.01600
H1267       H  0.91693365  0.97288068  0.84277674     0.14600
H1268       H  0.93167283  0.12421503  0.79696126     0.14600
C1269       C  0.98251275  0.10776020  0.83994388     0.36300
C1270       C  0.87282654  0.98580909  0.79376342     0.36200
N1271       N  0.00704663  0.13206462  0.84585954    -0.44100
N1272       N  0.85426766  0.95770904  0.78318068    -0.44100
C1273       C  0.89858092  0.08821866  0.68267835    -0.00500
C1274       C  0.88625083  0.10719979  0.65376373    -0.12400
C1275       C  0.90525017  0.09634478  0.62240707     0.01700
C1276       C  0.93813819  0.06691525  0.61946103    -0.00600
C1277       C  0.95140077  0.04888212  0.64821743    -0.12300
C1278       C  0.93199832  0.05913218  0.67970613     0.01600
H1279       H  0.86052108  0.12925476  0.65539644     0.14600
H1280       H  0.97602677  0.02528104  0.64589901     0.14600
C1281       C  0.94750101  0.03964461  0.70824566     0.36300
C1282       C  0.89004553  0.11538474  0.59356009     0.36200
N1283       N  0.96023424  0.02351818  0.73080795    -0.44100
N1284       N  0.87767587  0.13060900  0.57051420    -0.44100
C1285       C  0.73415448  0.68947771  0.71018376    -0.00500
C1286       C  0.75807115  0.71889677  0.69175668    -0.12400
C1287       C  0.74797906  0.76482946  0.69146799     0.01700
C1288       C  0.71408496  0.78224768  0.71107244    -0.00600
C1289       C  0.68881331  0.75115300  0.72690066    -0.12300
C1290       C  0.69891478  0.70573553  0.72718755     0.01600
H1291       H  0.78470034  0.70605781  0.67779065     0.14600
H1292       H  0.66042178  0.76153186  0.73880610     0.14600
C1293       C  0.67254269  0.67626201  0.74543490     0.36300
C1294       C  0.77259926  0.79274845  0.67030214     0.36200
N1295       N  0.65149213  0.65271319  0.76013945    -0.44100
N1296       N  0.79246393  0.81494980  0.65328765    -0.44100
C1297       C  0.78210463  0.28079326  0.76332145    -0.00500
C1298       C  0.77388363  0.25161597  0.73683858    -0.12400
C1299       C  0.78700353  0.20683985  0.73465832     0.01700
C1300       C  0.80934328  0.18905930  0.75942341    -0.00600
C1301       C  0.81469868  0.21727011  0.78741041    -0.12300
C1302       C  0.80129698  0.26232320  0.78959148     0.01600
H1303       H  0.75816529  0.26405942  0.71669352     0.14600
H1304       H  0.83004100  0.20531752  0.80770331     0.14600
C1305       C  0.80782101  0.28849250  0.81919491     0.36300
C1306       C  0.77815924  0.18056370  0.70566001     0.36200
N1307       N  0.81279158  0.30931847  0.84306043    -0.44100
N1308       N  0.77089225  0.15974961  0.68241498    -0.44100
C1309       C  0.87553999  0.57099376  0.92311254    -0.00500
C1310       C  0.84345473  0.59643491  0.91398112    -0.12400
C1311       C  0.82123081  0.58163913  0.88844194     0.01700
C1312       C  0.83140649  0.54078177  0.87081190    -0.00600
C1313       C  0.86202280  0.51407050  0.88119455    -0.12300
C1314       C  0.88401597  0.52869041  0.90708047     0.01600
H1315       H  0.83578482  0.62827931  0.92683436     0.14600
H1316       H  0.86999460  0.48250973  0.86804980     0.14600
C1317       C  0.91628976  0.50043780  0.91513745     0.36300
C1318       C  0.78741015  0.60851925  0.88176386     0.36200
N1319       N  0.94176977  0.47684263  0.92118806    -0.44100
N1320       N  0.76013007  0.63026759  0.87719419    -0.44100
C1321       C  0.87914791  0.58230211  0.53958847    -0.00500
C1322       C  0.83968443  0.57053487  0.54024957    -0.12400
C1323       C  0.81916135  0.55698961  0.56981028     0.01700
C1324       C  0.83878016  0.55339201  0.59917530    -0.00600
C1325       C  0.87853101  0.56490895  0.59808691    -0.12300
C1326       C  0.89847995  0.57991730  0.56894318     0.01600
H1327       H  0.82462908  0.57298655  0.51779190     0.14600
H1328       H  0.89404259  0.56294777  0.62032774     0.14600
C1329       C  0.93894435  0.59249376  0.56972423     0.36300
C1330       C  0.77815369  0.54717269  0.56903586     0.36200
N1331       N  0.97138273  0.60253040  0.57018050    -0.44100
N1332       N  0.74514615  0.54009264  0.56812906    -0.44100
C1333       C  0.95209645  0.69819826  0.96967752    -0.00500
C1334       C  0.93949516  0.73248089  0.99337206    -0.12400
C1335       C  0.95201641  0.77646233  0.99048223     0.01700
C1336       C  0.97747078  0.78854502  0.96308865    -0.00600
C1337       C  0.98908543  0.75569277  0.93835384    -0.12300
C1338       C  0.97678642  0.71098329  0.94142932     0.01600
H1339       H  0.91978167  0.72866830  0.51597123     0.14600
H1340       H  0.50670535  0.76933403  0.91568499     0.14600
C1341       C  0.98979084  0.67901241  0.91500576     0.36300
C1342       C  0.93983056  0.81074461  0.51866828     0.36200
N1343       N  0.49511543  0.65949588  0.89062883    -0.44100
N1344       N  0.92925627  0.83606348  0.54002554    -0.44100
C1345       C  0.98488755  0.53144177  0.98100416    -0.00500
C1346       C  0.97753120  0.50927777  0.50873088    -0.12400
C1347       C  0.50335894  0.47389896  0.51668337     0.01700
C1348       C  0.52885702  0.45848347  0.99033207    -0.00600
C1349       C  0.53606733  0.48256862  0.96116726    -0.12300
C1350       C  0.51375573  0.52118445  0.95565392     0.01600
H1351       H  0.95358914  0.51912656  0.52697724     0.14600
H1352       H  0.55800369  0.47023520  0.94200829     0.14600
C1353       C  0.02081092  0.53739951  0.92500805     0.36300
C1354       C  0.49880566  0.45398071  0.54888198     0.36200
N1355       N  0.02606433  0.55364652  0.89941491    -0.44100
N1356       N  0.49544202  0.43797435  0.57467892    -0.44100
C1357       C  0.64332417  0.40322841  0.94171169    -0.00500
C1358       C  0.63978128  0.44768155  0.93164350    -0.12400
C1359       C  0.65878366  0.46185802  0.90181678     0.01700
C1360       C  0.68311568  0.43159142  0.88129948    -0.00600
C1361       C  0.69007609  0.38854838  0.89285567    -0.12300
C1362       C  0.67076532  0.37425813  0.92271017     0.01600
H1363       H  0.62152149  0.47184453  0.94656700     0.14600
H1364       H  0.70987937  0.36543501  0.87803502     0.14600
C1365       C  0.68092993  0.33023524  0.93345283     0.36300
C1366       C  0.65313313  0.50808149  0.89345758     0.36200
N1367       N  0.68926060  0.29482562  0.94177273    -0.44100
N1368       N  0.64825387  0.54529165  0.88741029    -0.44100
C1369       C  0.62660043  0.41302004  0.55949828    -0.00500
C1370       C  0.61067237  0.40604031  0.59222229    -0.12400
C1371       C  0.63093107  0.41829761  0.61957138     0.01700
C1372       C  0.66767542  0.43850293  0.61446440    -0.00600
C1373       C  0.68285597  0.44740098  0.58205069    -0.12300
C1374       C  0.66284893  0.43471983  0.55457309     0.01600
H1375       H  0.58245384  0.39034518  0.59645875     0.14600
H1376       H  0.71134479  0.46242109  0.57813898     0.14600
C1377       C  0.68166689  0.44182149  0.52182917     0.36300
C1378       C  0.61310854  0.41055025  0.65261056     0.36200
N1379       N  0.69709007  0.44785405  0.49573948    -0.44100
N1380       N  0.59868217  0.40450317  0.67905188    -0.44100
C1381       C  0.53663465  0.19691488  0.50816076    -0.00500
C1382       C  0.57437537  0.21119703  0.01262648    -0.12400
C1383       C  0.58578897  0.25572072  0.01000426     0.01700
C1384       C  0.55866444  0.28793328  0.50443979    -0.00600
C1385       C  0.51942199  0.27559948  0.50189585    -0.12300
C1386       C  0.50846764  0.23068857  0.50327273     0.01600
H1387       H  0.59628003  0.18538958  0.01621755     0.14600
H1388       H  0.49689947  0.30018452  0.49807639     0.14600
C1389       C  0.46806869  0.22007797  0.49941188     0.36300
C1390       C  0.62680911  0.26443988  0.01263883     0.36200
N1391       N  0.93697595  0.21567863  0.49178522    -0.44100
N1392       N  0.65973652  0.27079905  0.01488050    -0.44100
loop_ 
_geom_bond_atom_site_label_1 
_geom_bond_atom_site_label_2 
_geom_bond_distance 
_geom_bond_site_symmetry_2 
_ccdc_geom_bond_type 
C1            C2   1.532       .  S
C1            C5   1.547   1_554  S
C1          C355   1.541   1_554  S
C1          C340   1.542       .  S
C2            H9   1.086       .  S
C2            C3   1.364       .  D
C3          C352   1.544   1_554  S
C3          C325   1.495       .  S
C4            C8   1.548       .  S
C4          C351   1.542       .  S
C4          C354   1.537       .  S
C4           H10   1.107       .  S
C5           H11   1.081       .  S
C5            C6   1.364       .  D
C6          C352   1.537       .  S
C6          C652   1.485       .  S
C7          C349   1.541       .  S
C7           H12   1.084       .  S
C7            C8   1.372       .  D
C8          C313   1.505       .  S
C13          C14   1.550       .  S
C13          C19   1.532       .  S
C13          C17   1.547       .  S
C13         C289   1.549       .  S
C14         H369   1.080       .  S
C14          C15   1.358       .  D
C15          C16   1.530       .  S
C15         C625   1.482       .  S
C16          C20   1.541       .  S
C16          C18   1.538       .  S
C16          H22   1.110       .  S
C17          H23   1.086       .  S
C17          C18   1.373       .  D
C18         C301   1.485       .  S
C19          H24   1.086       .  S
C19          C20   1.368       .  D
C20         C265   1.491       .  S
H21         C362   1.078       .  S
Zr25         O26   2.438       .  S
Zr25         O27   2.436       .  S
Zr25         O28   2.437       .  S
Zr25         O31   2.432       .  S
Zr25         O33   2.383       .  S
Zr25         O34   2.380       .  S
Zr25         O35   2.407       .  S
Zr25         O36   2.402       .  S
O26          H82   0.990       .  S
O26          H90   0.990       .  S
O27          C47   1.284       .  A
O28          C49   1.284       .  A
O29         Zr39   2.419       .  S
O29          C48   1.282       .  A
O30         Zr38   2.426       .  S
O30          C49   1.282       .  A
O31          C48   1.284       .  A
O32         Zr40   2.428       .  S
O32          C47   1.284       .  A
O33         Zr38   2.391       .  S
O33         Zr40   2.376       .  S
O34         Zr39   2.385       .  S
O34         Zr40   2.376       .  S
O34          H69   0.967       .  S
O35         Zr38   2.394       .  S
O35         Zr55   2.394       .  S
O35          H72   0.963       .  S
O36         Zr39   2.383       .  S
O36         Zr55   2.395       .  S
Zr37         O62   2.444       .  S
Zr37         O56   2.440       .  S
Zr37         O64   2.462       .  S
Zr37         O52   2.447       .  S
Zr37         O43   2.402       .  S
Zr37         O44   2.414       .  S
Zr37         O45   2.379       .  S
Zr37         O46   2.384       .  S
Zr38         O57   2.435       .  S
Zr38         O50   2.435       .  S
Zr38         O51   2.419       .  S
Zr38         O44   2.398       .  S
Zr38         O45   2.386       .  S
Zr39         O41   2.435       .  S
Zr39         O63   2.436       .  S
Zr39         O65   2.407       .  S
Zr39         O43   2.390       .  S
Zr39         O46   2.388       .  S
Zr40         O66   2.437       .  S
Zr40         O67   2.435       .  S
Zr40         O42   2.436       .  S
Zr40         O43   2.399       .  S
Zr40         O44   2.400       .  S
O41          H78   0.990       .  S
O42          H73   0.990       .  S
O42          H87   0.990       .  S
O44          H70   0.965       .  S
O45         Zr55   2.367       .  S
O46         Zr55   2.376       .  S
O46          H71   0.964       .  S
C47         C280   1.489       .  S
C48         C328   1.476       .  S
C49         C241   1.468       .  S
O50          H86   0.990       .  S
O51          C53   1.283       .  A
O52          C53   1.288       .  A
C53         C268   1.486       .  S
O54         Zr55   2.438       .  S
O54          H83   0.990       .  S
Zr55         O58   2.435       .  S
Zr55         O59   2.438       .  S
Zr55         O60   2.431       .  S
O56          C61   1.286       .  A
O57          H74   0.990       .  S
O57          H89   0.990       .  S
O58          H75   0.990       .  S
O59          H79   0.990       .  S
O59          H88   0.990       .  S
O60          C61   1.285       .  A
C61         C316   1.488       .  S
O62          H81   0.990       .  S
O62          H85   0.990       .  S
O63          H77   0.990       .  S
O63          H84   0.990       .  S
O64          C68   1.290       .  A
O65          C68   1.281       .  A
O66          H76   0.990       .  S
O67          H80   0.990       .  S
C68         C253   1.502       .  S
C91          C92   1.539       .  S
C91          C97   1.541       .  S
C91          C95   1.538       .  S
C91         C256   1.544       .  S
C92          H99   1.086       .  S
C92          C93   1.368       .  D
C93          C94   1.541       .  S
C93         C229   1.495       .  S
C94          C98   1.540       .  S
C94          C96   1.535       .  S
C94         H100   1.108       .  S
C95         H101   1.086       .  S
C95          C96   1.362       .  D
C96         C205   1.476       .  S
C97         H102   1.081       .  S
C97          C98   1.371       .  D
C98         C220   1.489       .  S
C103        C104   1.529       .  S
C103        C109   1.539       .  S
C103        C107   1.542       .  S
C103        C244   1.536       .  S
C104        H111   1.085       .  S
C104        C105   1.366       .  D
C105        C106   1.541       .  S
C105        C193   1.495       .  S
C106        C110   1.549       .  S
C106        C108   1.535       .  S
C106        H112   1.105       .  S
C107        H113   1.084       .  S
C107        C108   1.363       .  D
C108        C208   1.475       .  S
C109        H114   1.085       .  S
C109        C110   1.368       .  D
C110        C181   1.503       .  S
Zr115       O116   2.441       .  S
Zr115       O117   2.442   1_455  S
Zr115       O118   2.459       .  S
Zr115       O121   2.441   1_545  S
Zr115       O124   2.388   1_545  S
Zr115       O126   2.408   1_545  S
Zr115       O819   2.382   1_455  S
Zr115       O473   2.405   1_554  S
O116        H172   0.990       .  S
O116        H180   0.990       .  S
O117        C833   1.285       .  A
O118        C139   1.288       .  A
O119       Zr129   2.420       .  S
O119        C138   1.283       .  A
O120       Zr128   2.414   1_455  S
O120        C487   1.280       .  A
O121        C138   1.286       .  A
O122       Zr130   2.414   1_545  S
O122        C137   1.280       .  A
O123       Zr130   2.372   1_545  S
O123       Zr811   2.382       .  S
O123      Zr1172   2.389   1_554  S
O124       Zr129   2.393       .  S
O124       Zr826   2.381   1_455  S
O124        H855   0.965   1_455  S
O125       Zr128   2.394   1_455  S
O125       Zr145   2.390   1_545  S
O125       Zr463   2.404       .  S
O125        H162   0.967       .  S
O126       Zr129   2.388       .  S
O126       Zr493   2.394   1_554  S
Zr127       O152   2.440       .  S
Zr127       O154   2.461       .  S
Zr127       O142   2.446       .  S
Zr127       O842   2.431       .  S
Zr127       O133   2.400       .  S
Zr127       O134   2.411   1_565  S
Zr127       O831   2.380   1_565  S
Zr127       O832   2.388       .  S
Zr128       O147   2.438   1_655  S
Zr128       O836   2.434       .  S
Zr128       O837   2.409       .  S
Zr128       O135   2.386   1_655  S
Zr128      O1167   2.387       .  S
Zr128       O830   2.397       .  S
Zr129       O131   2.436       .  S
Zr129       O849   2.439       .  S
Zr129       O503   2.416   1_554  S
Zr129      O1177   2.388   1_454  S
Zr129       O484   2.392   1_554  S
Zr130       O156   2.433       .  S
Zr130       O157   2.434   1_554  S
Zr130       O132   2.438   1_565  S
Zr130       O820   2.384       .  S
Zr130       O481   2.391   1_554  S
Zr130       O482   2.391   1_564  S
O131        H168   0.990       .  S
O132        H163   0.990       .  S
O132        H177   0.990       .  S
O133      Zr1173   2.385       .  S
O133       Zr478   2.392       .  S
O134       Zr824   2.391       .  S
O134       Zr478   2.394   1_545  S
O134        H160   0.967       .  S
O135       Zr145   2.366   1_545  S
O135       Zr823   2.380   1_445  S
O136       Zr145   2.386       .  S
O136       Zr823   2.390   1_455  S
O136       Zr477   2.395       .  S
O136        H161   0.965       .  S
C137        O813   1.284       .  A
C137        C232   1.472       .  S
C138        C196   1.480       .  S
C139        O468   1.279   1_554  A
C139        C337   1.480       .  S
O140       Zr824   2.434       .  S
O140        H176   0.990       .  S
O141       Zr824   2.413       .  S
O141        C143   1.281       .  A
O142        C143   1.287   1_565  A
C143        C217   1.488       .  S
O144       Zr145   2.438   1_545  S
O144        H173   0.990       .  S
Zr145       O148   2.437   1_565  S
Zr145       O149   2.438       .  S
Zr145       O150   2.414       .  S
Zr145       O474   2.396       .  S
O146       Zr823   2.437   1_455  S
O146        C151   1.285       .  A
O147        H164   0.990       .  S
O147        H179   0.990       .  S
O148        H165   0.990       .  S
O149        H169   0.990       .  S
O149        H178   0.990       .  S
O150        C151   1.281       .  A
C151        C184   1.486       .  S
O152        H171   0.990       .  S
O152        H175   0.991       .  S
O153       Zr825   2.440       .  S
O153        H174   0.990       .  S
O153        H863   0.990       .  S
O154        C158   1.289       .  A
O155       Zr477   2.416       .  S
O155        C854   1.283   1_455  A
O156        H166   0.990       .  S
O157        H518   0.990       .  S
C158        O851   1.282       .  A
C158        C292   1.482       .  S
H159        O820   0.965       .  S
H167        O849   0.990       .  S
H170        O505   0.990       .  S
C181        C182   1.413       .  A
C181        C186   1.416       .  A
C182        C183   1.402       .  A
C182        H187   1.084       .  S
C183        C184   1.410       .  A
C183        C190   1.445       .  S
C184        C185   1.405       .  A
C185        C186   1.400       .  A
C185        H188   1.085       .  S
C186        C189   1.441       .  S
C189        N191   1.157   1_565  T
C190        N192   1.157       .  T
C193        C194   1.406       .  A
C193        C198   1.417       .  A
C194        C195   1.402       .  A
C194        H199   1.083       .  S
C195        C196   1.411       .  A
C195        C202   1.441       .  S
C196        C197   1.402       .  A
C197        C198   1.398       .  A
C197        H200   1.085       .  S
C198        C201   1.444       .  S
C201        N203   1.157       .  T
C202        N204   1.156   1_565  T
C205        C206   1.399       .  A
C205        C210   1.410       .  A
C206        C207   1.399   1_545  A
C206        H211   1.084       .  S
C207        C208   1.409       .  A
C207        C214   1.444       .  S
C208        C209   1.401       .  A
C209        C210   1.402   1_565  A
C209        H212   1.085       .  S
C210        C213   1.443       .  S
C213        N215   1.157       .  T
C214        N216   1.157       .  T
C217        C218   1.406       .  A
C217        C222   1.416       .  A
C218        C219   1.404       .  A
C218        H223   1.085   1_545  S
C219        C220   1.413       .  A
C219        C226   1.440   1_545  S
C220        C221   1.402       .  A
C221        C222   1.395       .  A
C221        H224   1.085       .  S
C222        C225   1.443       .  S
C225        N227   1.157       .  T
C226        N228   1.156       .  T
C229        C230   1.409       .  A
C229        C234   1.417       .  A
C230        C231   1.397       .  A
C230        H235   1.084       .  S
C231        C232   1.406       .  A
C231        C238   1.444       .  S
C232        C233   1.401       .  A
C233        C234   1.404       .  A
C233        H236   1.083       .  S
C234        C237   1.443       .  S
C237        N239   1.157       .  T
C238        N240   1.157       .  T
C241        C242   1.399       .  A
C241        C246   1.404       .  A
C242        C243   1.405       .  A
C242        H247   1.085       .  S
C243        C244   1.425       .  A
C243        C250   1.443       .  S
C244        C245   1.412       .  A
C245        C246   1.394       .  A
C245        H248   1.083       .  S
C246        C249   1.445       .  S
C249        N251   1.157       .  T
C250        N252   1.158       .  T
C253        C254   1.409       .  A
C253        C258   1.415       .  A
C254        C255   1.397       .  A
C254        H259   1.084       .  S
C255        C256   1.419       .  A
C255        C262   1.447       .  S
C256        C257   1.415       .  A
C257        C258   1.408       .  A
C257        H260   1.077       .  S
C258        C261   1.444       .  S
C261        N263   1.157       .  T
C262        N264   1.157       .  T
C265        C266   1.404       .  A
C265        C270   1.414       .  A
C266        C267   1.398       .  A
C266        H271   1.085       .  S
C267        C268   1.415       .  A
C267        C274   1.444       .  S
C268        C269   1.405       .  A
C269        C270   1.404       .  A
C269        H272   1.085       .  S
C270        C273   1.441       .  S
C273        N275   1.157       .  T
C274        N276   1.157       .  T
C277        C363   1.479       .  S
C277        C278   1.399       .  A
C277        C282   1.410       .  A
C278        C279   1.404       .  A
C278        H283   1.085       .  S
C279        C280   1.418       .  A
C279        C286   1.442       .  S
C280        C281   1.407       .  A
C281        C282   1.398       .  A
C281        H284   1.085       .  S
C282        C285   1.445       .  S
C285        N287   1.157       .  T
C286        N288   1.157       .  T
C289        C290   1.412       .  A
C289        C294   1.425       .  A
C290        C291   1.393       .  A
C290        H643   1.075       .  S
C291        C292   1.407       .  A
C291        C646   1.447       .  S
C292        C293   1.403       .  A
C293        C294   1.413       .  A
C293        H992   1.084       .  S
C294        C297   1.443       .  S
H295        C638   1.072   1_554  S
H296        C989   1.084   1_455  S
C297        N995   1.157       .  T
C298        C639   1.446   1_554  S
C298        N300   1.157       .  T
N299        C993   1.157       .  T
C301        C650   1.405       .  A
C301       C1002   1.409       .  A
C302        C649   1.404   1_554  A
C302        C999   1.399       .  A
C302        H307   1.082       .  S
C303        C998   1.403   1_455  A
C303        C652   1.408   1_554  A
C303        C310   1.444   1_455  S
C304        C354   1.488       .  S
C304        C305   1.404       .  A
C304        C651   1.409       .  A
C305        C306   1.403       .  A
C305        H308   1.080       .  S
C306        C997   1.410   1_455  A
C306       C1005   1.443       .  S
C309       C1002   1.443       .  S
C309        N311   1.157       .  T
C310        N312   1.157       .  T
C313        C314   1.405       .  A
C313        C318   1.419       .  A
C314        C315   1.397       .  A
C314        H319   1.077       .  S
C315        C316   1.412       .  A
C315        C322   1.444       .  S
C316        C317   1.405       .  A
C317        C318   1.407       .  A
C317        H320   1.085       .  S
C318        C321   1.443       .  S
C321        N323   1.157       .  T
C322        N324   1.157       .  T
C325        C326   1.409       .  A
C325        C330   1.416       .  A
C326        C327   1.398       .  A
C326        H331   1.084       .  S
C327        C328   1.409       .  A
C327        C334   1.445       .  S
C328        C329   1.401       .  A
C329        C330   1.402       .  A
C329        H332   1.083       .  S
C330        C333   1.442       .  S
C333        N335   1.157   1_554  T
C334        N336   1.157       .  T
C337        C342   1.410       .  A
C337        C686   1.399       .  A
C338        C339   1.402       .  A
C338        C685   1.400       .  A
C338        H343   1.085       .  S
C339        C688   1.425       .  A
C339        C346   1.445       .  S
C340        C341   1.413   1_554  A
C340        C687   1.424       .  A
C341        C342   1.403   1_556  A
C341        H344   1.076   1_455  S
C342        C345   1.445   1_454  S
C345       N1043   1.157       .  T
C346        N348   1.157       .  T
N347       C1041   1.157       .  T
C349        C350   1.532       .  S
C349        C353   1.550       .  S
C349        C688   1.544       .  S
C350        H357   1.086       .  S
C350        C351   1.364       .  D
C351        C673   1.492       .  S
C352        C356   1.548       .  S
C352        H358   1.107       .  S
C353        H359   1.081       .  S
C353        C354   1.365       .  D
C355        H360   1.084       .  S
C355        C356   1.372       .  D
C356        C661   1.505       .  S
C361        C362   1.552   1_556  S
C361        C367   1.537       .  S
C361        C365   1.548       .  S
C361        C637   1.553       .  S
C362        C363   1.357       .  D
C363        C364   1.527   1_554  S
C364        C368   1.537       .  S
C364        C366   1.535       .  S
C364        H370   1.111       .  S
C365        H371   1.086       .  S
C365        C366   1.373       .  D
C366        C649   1.485       .  S
C367        H372   1.086       .  S
C367        C368   1.369       .  D
C368        C613   1.487       .  S
Zr373       O374   2.439       .  S
Zr373       O375   2.437       .  S
Zr373       O376   2.443       .  S
Zr373       O379   2.433       .  S
Zr373       O381   2.380       .  S
Zr373       O382   2.379       .  S
Zr373       O383   2.404       .  S
Zr373       O384   2.405       .  S
O374        H430   0.991       .  S
O374        H438   0.990       .  S
O375        C395   1.285       .  A
O376        C397   1.285       .  A
O377       Zr387   2.419       .  S
O377        C396   1.283       .  A
O378       Zr386   2.432       .  S
O378        C397   1.283       .  A
O379        C396   1.285       .  A
O380       Zr388   2.424       .  S
O380        C395   1.283       .  A
O381       Zr386   2.389       .  S
O381       Zr388   2.377       .  S
O382       Zr387   2.387       .  S
O382       Zr388   2.373       .  S
O382        H417   0.967       .  S
O383       Zr386   2.395       .  S
O383       Zr403   2.395       .  S
O383        H420   0.963       .  S
O384       Zr387   2.388       .  S
O384       Zr403   2.396       .  S
Zr385       O410   2.443       .  S
Zr385       O404   2.437       .  S
Zr385       O412   2.453       .  S
Zr385       O400   2.439       .  S
Zr385       O391   2.399       .  S
Zr385       O392   2.411       .  S
Zr385       O393   2.380       .  S
Zr385       O394   2.383       .  S
Zr386       O405   2.437       .  S
Zr386       O398   2.436       .  S
Zr386       O399   2.422       .  S
Zr386       O392   2.398       .  S
Zr386       O393   2.388       .  S
Zr387       O389   2.435       .  S
Zr387       O411   2.437       .  S
Zr387       O413   2.414       .  S
Zr387       O391   2.388       .  S
Zr387       O394   2.386       .  S
Zr388       O414   2.436       .  S
Zr388       O415   2.435       .  S
Zr388       O390   2.436       .  S
Zr388       O391   2.395       .  S
Zr388       O392   2.402       .  S
O389        H426   0.990       .  S
O390        H421   0.990       .  S
O390        H435   0.990       .  S
O392        H418   0.964       .  S
O393       Zr403   2.366       .  S
O394       Zr403   2.376       .  S
O394        H419   0.964       .  S
C395        C628   1.488       .  S
C396        C676   1.474       .  S
C397        C589   1.474       .  S
O398        H434   0.990       .  S
O399        C401   1.283       .  A
O400        C401   1.287       .  A
C401        C616   1.481       .  S
O402       Zr403   2.439       .  S
O402        H431   0.991       .  S
Zr403       O406   2.436       .  S
Zr403       O407   2.438       .  S
Zr403       O408   2.435       .  S
O404        C409   1.286       .  A
O405        H422   0.990       .  S
O405        H437   0.990       .  S
O406        H423   0.990       .  S
O407        H427   0.990       .  S
O407        H436   0.990       .  S
O408        C409   1.285       .  A
C409        C664   1.489       .  S
O410        H429   0.990       .  S
O410        H433   0.990       .  S
O411        H425   0.990       .  S
O411        H432   0.990       .  S
O412        C416   1.288       .  A
O413        C416   1.283       .  A
O414        H424   0.990       .  S
O415        H428   0.990       .  S
C416        C601   1.501       .  S
C439        C440   1.539       .  S
C439        C445   1.540       .  S
C439        C443   1.538       .  S
C439        C604   1.543       .  S
C440        H447   1.086       .  S
C440        C441   1.368       .  D
C441        C442   1.541       .  S
C441        C577   1.495       .  S
C442        C446   1.540       .  S
C442        C444   1.534       .  S
C442        H448   1.107       .  S
C443        H449   1.086       .  S
C443        C444   1.361       .  D
C444        C553   1.474       .  S
C445        H450   1.081       .  S
C445        C446   1.371       .  D
C446        C568   1.487       .  S
C451        C452   1.532       .  S
C451        C457   1.538       .  S
C451        C455   1.543       .  S
C451        C592   1.542       .  S
C452        H459   1.085       .  S
C452        C453   1.369       .  D
C453        C454   1.540       .  S
C453        C541   1.499       .  S
C454        C458   1.548       .  S
C454        C456   1.534       .  S
C454        H460   1.104       .  S
C455        H461   1.083       .  S
C455        C456   1.363       .  D
C456        C556   1.473       .  S
C457        H462   1.085       .  S
C457        C458   1.369       .  D
C458        C529   1.503       .  S
Zr463       O464   2.442       .  S
Zr463       O465   2.443   1_455  S
Zr463       O466   2.454       .  S
Zr463       O469   2.442       .  S
Zr463      O1167   2.386   1_455  S
Zr463       O472   2.384   1_545  S
Zr463       O474   2.406   1_545  S
O464        H520   0.991       .  S
O464        H528   0.990       .  S
O465       C1181   1.285       .  A
O466        C487   1.287       .  A
O467       Zr477   2.427       .  S
O467        C486   1.283       .  A
O468       Zr476   2.408   1_455  S
O469        C486   1.286   1_545  A
O470       Zr478   2.419   1_545  S
O470        C485   1.281       .  A
O471      Zr1159   2.383       .  S
O471       Zr824   2.389       .  S
O471       Zr478   2.372   1_545  S
O472       Zr477   2.389       .  S
O472      Zr1174   2.383   1_455  S
O472       H1203   0.965   1_455  S
O473       Zr476   2.398   1_455  S
O473       Zr493   2.394   1_545  S
O473        H510   0.967       .  S
O474       Zr477   2.385       .  S
Zr475       O500   2.439       .  S
Zr475      O1190   2.437       .  S
Zr475       O502   2.462       .  S
Zr475       O490   2.446       .  S
Zr475       O481   2.400       .  S
Zr475       O482   2.410   1_565  S
Zr475      O1179   2.379   1_565  S
Zr475      O1180   2.388       .  S
Zr476       O495   2.438   1_655  S
Zr476      O1184   2.435       .  S
Zr476      O1185   2.414       .  S
Zr476       O819   2.390   1_556  S
Zr476      O1178   2.396       .  S
Zr476       O483   2.382   1_655  S
Zr477       O479   2.435       .  S
Zr477      O1197   2.441       .  S
Zr477       O829   2.388   1_455  S
Zr478       O504   2.434       .  S
Zr478       O505   2.435       .  S
Zr478       O480   2.436   1_565  S
Zr478      O1168   2.380       .  S
O479        H516   0.990       .  S
O480        H511   0.990       .  S
O480        H525   0.990       .  S
O481       Zr825   2.389   1_556  S
O482      Zr1172   2.395       .  S
O482        H508   0.968       .  S
O483      Zr1171   2.379   1_445  S
O483       Zr493   2.368   1_545  S
O484      Zr1171   2.389   1_455  S
O484       Zr493   2.385       .  S
O484        H509   0.964       .  S
C485       O1161   1.286       .  A
C485        C580   1.477       .  S
C486        C544   1.484       .  S
C487        C685   1.482       .  S
O488      Zr1172   2.435       .  S
O488        H524   0.990       .  S
O489      Zr1172   2.405       .  S
O489        C491   1.280       .  A
O490        C491   1.287   1_565  A
C491        C565   1.485       .  S
O492       Zr493   2.439   1_545  S
O492        H521   0.991       .  S
Zr493       O496   2.438   1_565  S
Zr493       O497   2.439       .  S
Zr493       O498   2.413       .  S
O494      Zr1171   2.435   1_455  S
O494        C499   1.284       .  A
O495        H512   0.990       .  S
O495        H527   0.990       .  S
O496        H513   0.990       .  S
O497        H517   0.990       .  S
O497        H526   0.989       .  S
O498        C499   1.281       .  A
C499        C532   1.483       .  S
O500        H519   0.990       .  S
O500        H523   0.990       .  S
O501      Zr1173   2.439       .  S
O501       H1211   0.990       .  S
O501        H522   0.990       .  S
O502        C506   1.289       .  A
O503       C1202   1.282   1_455  A
O504        H514   0.990       .  S
C506       O1199   1.283       .  A
C506        C640   1.486       .  S
H507       O1168   0.965       .  S
H515       O1197   0.990       .  S
C529        C530   1.413       .  A
C529        C534   1.418       .  A
C530        C531   1.401       .  A
C530        H535   1.084       .  S
C531        C532   1.408       .  A
C531        C538   1.444       .  S
C532        C533   1.404       .  A
C533        C534   1.400       .  A
C533        H536   1.085       .  S
C534        C537   1.441       .  S
C537        N539   1.158   1_565  T
C538        N540   1.157       .  T
C541        C542   1.408       .  A
C541        C546   1.417       .  A
C542        C543   1.405       .  A
C542        H547   1.083       .  S
C543        C544   1.411       .  A
C543        C550   1.442   1_565  S
C544        C545   1.403       .  A
C545        C546   1.400       .  A
C545        H548   1.085       .  S
C546        C549   1.444       .  S
C549        N551   1.157       .  T
C550        N552   1.157       .  T
C553        C554   1.400       .  A
C553        C558   1.410       .  A
C554        C555   1.399   1_545  A
C554        H559   1.085       .  S
C555        C556   1.409       .  A
C555        C562   1.444       .  S
C556        C557   1.400       .  A
C557        C558   1.400   1_565  A
C557        H560   1.085       .  S
C558        C561   1.442       .  S
C561        N563   1.157       .  T
C562        N564   1.157       .  T
C565        C566   1.405       .  A
C565        C570   1.415       .  A
C566        C567   1.403       .  A
C566        H571   1.085   1_545  S
C567        C568   1.413       .  A
C567        C574   1.440   1_545  S
C568        C569   1.402       .  A
C569        C570   1.394       .  A
C569        H572   1.085       .  S
C570        C573   1.444       .  S
C573        N575   1.157       .  T
C574        N576   1.157       .  T
C577        C578   1.408       .  A
C577        C582   1.416       .  A
C578        C579   1.398       .  A
C578        H583   1.084       .  S
C579        C580   1.407       .  A
C579        C586   1.444       .  S
C580        C581   1.402       .  A
C581        C582   1.405       .  A
C581        H584   1.082       .  S
C582        C585   1.444       .  S
C585        N587   1.158       .  T
C586        N588   1.157       .  T
C589        C590   1.400       .  A
C589        C594   1.405       .  A
C590        C591   1.408       .  A
C590        H595   1.085       .  S
C591        C592   1.425       .  A
C591        C598   1.443       .  S
C592        C593   1.412       .  A
C593        C594   1.397       .  A
C593        H596   1.083       .  S
C594        C597   1.445       .  S
C597        N599   1.157       .  T
C598        N600   1.158       .  T
C601        C602   1.408       .  A
C601        C606   1.416       .  A
C602        C603   1.396       .  A
C602        H607   1.084       .  S
C603        C604   1.419       .  A
C603        C610   1.446       .  S
C604        C605   1.415       .  A
C605        C606   1.408       .  A
C605        H608   1.077       .  S
C606        C609   1.444       .  S
C609        N611   1.158       .  T
C610        N612   1.157       .  T
C613        C614   1.403       .  A
C613        C618   1.414       .  A
C614        C615   1.398       .  A
C614        H619   1.085       .  S
C615        C616   1.414       .  A
C615        C622   1.444       .  S
C616        C617   1.403       .  A
C617        C618   1.402       .  A
C617        H620   1.085       .  S
C618        C621   1.442       .  S
C621        N623   1.157       .  T
C622        N624   1.157       .  T
C625        C626   1.400       .  A
C625        C630   1.411       .  A
C626        C627   1.404       .  A
C626        H631   1.085       .  S
C627        C628   1.417       .  A
C627        C634   1.442       .  S
C628        C629   1.406       .  A
C629        C630   1.398       .  A
C629        H632   1.085       .  S
C630        C633   1.445       .  S
C633        N635   1.157       .  T
C634        N636   1.157       .  T
C637        C638   1.413       .  A
C637        C642   1.426       .  A
C638        C639   1.394       .  A
C639        C640   1.407       .  A
C640        C641   1.403       .  A
C641        C642   1.414       .  A
C641       H1340   1.084       .  S
C642        C645   1.443       .  S
H644       C1337   1.084   1_455  S
C645       N1343   1.157       .  T
C646        N648   1.157       .  T
N647       C1341   1.157   1_455  T
C649       C1350   1.409       .  A
C650       C1347   1.401       .  A
C650        H655   1.082       .  S
C651       C1346   1.401   1_455  A
C651        C658   1.444   1_455  S
C652        C653   1.402       .  A
C653        C654   1.401       .  A
C653        H656   1.080       .  S
C654       C1345   1.410   1_455  A
C654       C1353   1.442       .  S
C657       C1350   1.444       .  S
C657        N659   1.157       .  T
C658        N660   1.157       .  T
C661        C662   1.405       .  A
C661        C666   1.419       .  A
C662        C663   1.399       .  A
C662        H667   1.078       .  S
C663        C664   1.413       .  A
C663        C670   1.445       .  S
C664        C665   1.405       .  A
C665        C666   1.406       .  A
C665        H668   1.085       .  S
C666        C669   1.443       .  S
C669        N671   1.157       .  T
C670        N672   1.157       .  T
C673        C674   1.409       .  A
C673        C678   1.415       .  A
C674        C675   1.399       .  A
C674        H679   1.084       .  S
C675        C676   1.408       .  A
C675        C682   1.445       .  S
C676        C677   1.400       .  A
C677        C678   1.401       .  A
C677        H680   1.082       .  S
C678        C681   1.442       .  S
C681        N683   1.157       .  T
C682        N684   1.157       .  T
C685        C690   1.409       .  A
C686        C687   1.400       .  A
C686        H691   1.085       .  S
C687        C694   1.445       .  S
C688        C689   1.413       .  A
C689        C690   1.402       .  A
C689        H692   1.076   1_455  S
C690        C693   1.445   1_455  S
C693       N1391   1.157       .  T
C694        N696   1.157       .  T
N695       C1389   1.157       .  T
C697        C698   1.529       .  S
C697       C1051   1.540   1_554  S
C697        C701   1.548   1_554  S
C697       C1036   1.541       .  S
C698        H705   1.087       .  S
C698        C699   1.360       .  D
C699       C1048   1.544   1_554  S
C699       C1021   1.492       .  S
C700       C1047   1.539       .  S
C700        C704   1.547       .  S
C700       C1050   1.536       .  S
C700        H706   1.108       .  S
C701        H707   1.081       .  S
C701        C702   1.367       .  D
C702       C1048   1.539       .  S
C702       C1348   1.487       .  S
C703       C1045   1.540       .  S
C703        H708   1.084       .  S
C703        C704   1.370       .  D
C704       C1009   1.503       .  S
C709        C710   1.552       .  S
C709        C715   1.537       .  S
C709        C713   1.548       .  S
C709        C985   1.555       .  S
C710       H1065   1.079       .  S
C710        C711   1.360       .  D
C711        C712   1.531       .  S
C711       C1321   1.483       .  S
C712        C716   1.540       .  S
C712        C714   1.537       .  S
C712        H718   1.111       .  S
C713        H719   1.086   1_655  S
C713        C714   1.372       .  D
C714        C997   1.488       .  S
C715        H720   1.086       .  S
C715        C716   1.369       .  D
C716        C961   1.491       .  S
H717       C1058   1.079       .  S
Zr721       O722   2.440       .  S
Zr721       O723   2.445       .  S
Zr721       O724   2.437       .  S
Zr721       O727   2.430       .  S
Zr721       O729   2.380       .  S
Zr721       O730   2.377       .  S
Zr721       O731   2.409       .  S
Zr721       O732   2.406       .  S
O722        H778   0.990       .  S
O722        H786   0.990       .  S
O723        C743   1.286       .  A
O724        C745   1.283       .  A
O725       Zr735   2.423       .  S
O725        C744   1.283       .  A
O726       Zr734   2.423       .  S
O726        C745   1.281       .  A
O727        C744   1.284       .  A
O728       Zr736   2.421       .  S
O728        C743   1.282       .  A
O729       Zr734   2.392       .  S
O729       Zr736   2.376       .  S
O730       Zr735   2.387       .  S
O730       Zr736   2.378       .  S
O730        H765   0.966       .  S
O731       Zr734   2.395       .  S
O731       Zr751   2.399       .  S
O731        H768   0.963       .  S
O732       Zr735   2.385       .  S
O732       Zr751   2.398       .  S
Zr733       O758   2.443       .  S
Zr733       O752   2.439       .  S
Zr733       O760   2.455       .  S
Zr733       O748   2.452       .  S
Zr733       O739   2.402       .  S
Zr733       O740   2.410       .  S
Zr733       O741   2.378       .  S
Zr733       O742   2.384       .  S
Zr734       O753   2.437       .  S
Zr734       O746   2.434       .  S
Zr734       O747   2.419       .  S
Zr734       O740   2.396       .  S
Zr734       O741   2.385       .  S
Zr735       O737   2.435       .  S
Zr735       O759   2.436       .  S
Zr735       O761   2.407       .  S
Zr735       O739   2.389       .  S
Zr735       O742   2.387       .  S
Zr736       O762   2.439       .  S
Zr736       O763   2.435       .  S
Zr736       O738   2.437       .  S
Zr736       O739   2.393       .  S
Zr736       O740   2.399       .  S
O737        H774   0.990       .  S
O738        H769   0.990       .  S
O738        H783   0.990       .  S
O740        H766   0.965       .  S
O741       Zr751   2.368       .  S
O742       Zr751   2.373       .  S
O742        H767   0.964       .  S
C743        C976   1.491       .  S
C744       C1024   1.474       .  S
C745        C937   1.468       .  S
O746        H782   0.990       .  S
O747        C749   1.283       .  A
O748        C749   1.289       .  A
C749        C964   1.486       .  S
O750       Zr751   2.438       .  S
O750        H779   0.990       .  S
Zr751       O754   2.435       .  S
Zr751       O755   2.439       .  S
Zr751       O756   2.435       .  S
O752        C757   1.286       .  A
O753        H770   0.990       .  S
O753        H785   0.990       .  S
O754        H771   0.990       .  S
O755        H775   0.990       .  S
O755        H784   0.990       .  S
O756        C757   1.285       .  A
C757       C1012   1.488       .  S
O758        H777   0.990       .  S
O758        H781   0.990       .  S
O759        H773   0.990       .  S
O759        H780   0.990       .  S
O760        C764   1.289       .  A
O761        C764   1.281       .  A
O762        H772   0.990       .  S
O763        H776   0.990       .  S
C764        C949   1.500       .  S
C787        C788   1.539       .  S
C787        C793   1.543       .  S
C787        C791   1.539       .  S
C787        C952   1.543       .  S
C788        H795   1.086       .  S
C788        C789   1.366       .  D
C789        C790   1.540       .  S
C789        C925   1.493       .  S
C790        C794   1.539       .  S
C790        C792   1.535       .  S
C790        H796   1.108       .  S
C791        H797   1.086       .  S
C791        C792   1.363       .  D
C792        C901   1.475       .  S
C793        H798   1.081       .  S
C793        C794   1.372       .  D
C794        C916   1.491       .  S
C799        C800   1.531       .  S
C799        C805   1.540       .  S
C799        C803   1.542       .  S
C799        C940   1.538       .  S
C800        H807   1.085       .  S
C800        C801   1.367       .  D
C801        C802   1.540       .  S
C801        C889   1.496       .  S
C802        C806   1.546       .  S
C802        C804   1.535       .  S
C802        H808   1.105       .  S
C803        H809   1.085       .  S
C803        C804   1.366       .  D
C804        C904   1.473       .  S
C805        H810   1.084       .  S
C805        C806   1.366       .  D
C806        C877   1.503       .  S
Zr811       O812   2.440       .  S
Zr811       O813   2.441       .  S
Zr811       O814   2.457       .  S
Zr811       O817   2.440       .  S
Zr811       O820   2.384   1_545  S
Zr811      O1169   2.407   1_554  S
Zr811       O822   2.407   1_545  S
O812        H868   0.990       .  S
O812        H876   0.990       .  S
O814        C835   1.288       .  A
O815       Zr825   2.428       .  S
O815        C834   1.284       .  A
O816       Zr824   2.405       .  S
O816       C1183   1.279       .  A
O817        C834   1.285   1_545  A
O818       Zr826   2.424   1_545  S
O818        C833   1.281       .  A
O819       Zr826   2.373   1_545  S
O820       Zr825   2.390       .  S
O821      Zr1159   2.411       .  S
O821       Zr824   2.398       .  S
O821       Zr841   2.398   1_545  S
O821        H858   0.967       .  S
O822       Zr825   2.386       .  S
O822      Zr1189   2.396   1_554  S
Zr823       O848   2.439       .  S
Zr823       O850   2.473       .  S
Zr823       O838   2.458       .  S
Zr823       O829   2.400       .  S
Zr823       O830   2.417   1_565  S
Zr824       O843   2.438       .  S
Zr824       O831   2.380       .  S
Zr825       O827   2.435   1_554  S
Zr825      O1199   2.418   1_554  S
Zr825      O1180   2.393   1_554  S
Zr826       O852   2.435       .  S
Zr826       O853   2.435   1_554  S
Zr826       O828   2.436   1_565  S
Zr826      O1177   2.394   1_554  S
Zr826      O1178   2.399   1_564  S
O827        H864   0.990   1_556  S
O828        H859   0.990       .  S
O828        H873   0.990       .  S
O829      Zr1174   2.388       .  S
O830      Zr1174   2.395   1_545  S
O830        H856   0.968       .  S
O831       Zr841   2.368   1_545  S
O832      Zr1173   2.391       .  S
O832       Zr841   2.384       .  S
O832        H857   0.964       .  S
C833        C928   1.478       .  S
C834        C892   1.482       .  S
C835       O1164   1.278   1_554  A
C835       C1033   1.478       .  S
O836        H872   0.990       .  S
O837        C839   1.281       .  A
O838        C839   1.289   1_565  A
C839        C913   1.492       .  S
O840       Zr841   2.438   1_545  S
O840        H869   0.990       .  S
Zr841       O844   2.436   1_565  S
Zr841       O845   2.440       .  S
Zr841       O846   2.420       .  S
Zr841      O1170   2.392       .  S
O842        C847   1.284       .  A
O843        H860   0.990       .  S
O843        H875   0.990       .  S
O844        H861   0.990       .  S
O845        H865   0.990       .  S
O845        H874   0.990       .  S
O846        C847   1.283       .  A
C847        C880   1.484       .  S
O848        H867   0.990       .  S
O848        H871   0.990       .  S
O849        H870   0.990       .  S
O850        C854   1.292       .  A
O851      Zr1173   2.413       .  S
O852        H862   0.990       .  S
O853       H1214   0.990       .  S
C854        C988   1.489       .  S
H866       O1201   0.990       .  S
C877        C878   1.413       .  A
C877        C882   1.417       .  A
C878        C879   1.401       .  A
C878        H883   1.084       .  S
C879        C880   1.409       .  A
C879        C886   1.445       .  S
C880        C881   1.404       .  A
C881        C882   1.400       .  A
C881        H884   1.085       .  S
C882        C885   1.441       .  S
C885        N887   1.157   1_565  T
C886        N888   1.158       .  T
C889        C890   1.407       .  A
C889        C894   1.417       .  A
C890        C891   1.403       .  A
C890        H895   1.084       .  S
C891        C892   1.411       .  A
C891        C898   1.442       .  S
C892        C893   1.402       .  A
C893        C894   1.399       .  A
C893        H896   1.085       .  S
C894        C897   1.444       .  S
C897        N899   1.157       .  T
C898        N900   1.157   1_565  T
C901        C902   1.400       .  A
C901        C906   1.410       .  A
C902        C903   1.400   1_545  A
C902        H907   1.085       .  S
C903        C904   1.409       .  A
C903        C910   1.444       .  S
C904        C905   1.400       .  A
C905        C906   1.400   1_565  A
C905        H908   1.085       .  S
C906        C909   1.442       .  S
C909        N911   1.157       .  T
C910        N912   1.157       .  T
C913        C914   1.406       .  A
C913        C918   1.418       .  A
C914        C915   1.406       .  A
C914        H919   1.084   1_545  S
C915        C916   1.414       .  A
C915        C922   1.440   1_545  S
C916        C917   1.401       .  A
C917        C918   1.395       .  A
C917        H920   1.085       .  S
C918        C921   1.443       .  S
C921        N923   1.157   1_655  T
C922        N924   1.157       .  T
C925        C926   1.407       .  A
C925        C930   1.415       .  A
C926        C927   1.398       .  A
C926        H931   1.084       .  S
C927        C928   1.408       .  A
C927        C934   1.444       .  S
C928        C929   1.402       .  A
C929        C930   1.404       .  A
C929        H932   1.082       .  S
C930        C933   1.444       .  S
C933        N935   1.157       .  T
C934        N936   1.157       .  T
C937        C938   1.400       .  A
C937        C942   1.403       .  A
C938        C939   1.407       .  A
C938        H943   1.085       .  S
C939        C940   1.423       .  A
C939        C946   1.443       .  S
C940        C941   1.412       .  A
C941        C942   1.392       .  A
C941        H944   1.081       .  S
C942        C945   1.446       .  S
C945        N947   1.157       .  T
C946        N948   1.157       .  T
C949        C950   1.408       .  A
C949        C954   1.415       .  A
C950        C951   1.396       .  A
C950        H955   1.084       .  S
C951        C952   1.419       .  A
C951        C958   1.446       .  S
C952        C953   1.415       .  A
C953        C954   1.408       .  A
C953        H956   1.077       .  S
C954        C957   1.444       .  S
C957        N959   1.157       .  T
C958        N960   1.157       .  T
C961        C962   1.404       .  A
C961        C966   1.414       .  A
C962        C963   1.400       .  A
C962        H967   1.085       .  S
C963        C964   1.415       .  A
C963        C970   1.444       .  S
C964        C965   1.404       .  A
C965        C966   1.404       .  A
C965        H968   1.085       .  S
C966        C969   1.442       .  S
C969        N971   1.157       .  T
C970        N972   1.157       .  T
C973       C1059   1.483       .  S
C973        C974   1.400       .  A
C973        C978   1.410       .  A
C974        C975   1.406       .  A
C974        H979   1.085       .  S
C975        C976   1.418       .  A
C975        C982   1.442       .  S
C976        C977   1.407       .  A
C977        C978   1.398       .  A
C977        H980   1.085       .  S
C978        C981   1.445       .  S
C981        N983   1.157       .  T
C982        N984   1.157       .  T
C985        C986   1.413       .  A
C985        C990   1.426       .  A
C986        C987   1.398       .  A
C986       H1339   1.073       .  S
C987        C988   1.409       .  A
C987       C1342   1.446       .  S
C988        C989   1.403       .  A
C989        C990   1.414       .  A
C990        C993   1.443       .  S
H991       C1334   1.073   1_554  S
C994       C1335   1.446   1_554  S
C994        N996   1.157       .  T
C997       C1346   1.405       .  A
C998       C1345   1.406   1_554  A
C998       H1003   1.082       .  S
C999       C1348   1.408   1_554  A
C999       C1006   1.444       .  S
C1000      C1050   1.482       .  S
C1000      C1347   1.408       .  A
C1000      C1001   1.403       .  A
C1001      C1002   1.402       .  A
C1001      H1004   1.082       .  S
C1005      N1007   1.157       .  T
C1006      N1008   1.157       .  T
C1009      C1010   1.404       .  A
C1009      C1014   1.420       .  A
C1010      C1011   1.396       .  A
C1010      H1015   1.079       .  S
C1011      C1012   1.412       .  A
C1011      C1018   1.443       .  S
C1012      C1013   1.405       .  A
C1013      C1014   1.407       .  A
C1013      H1016   1.085       .  S
C1014      C1017   1.443       .  S
C1017      N1019   1.157       .  T
C1018      N1020   1.157       .  T
C1021      C1022   1.410       .  A
C1021      C1026   1.413       .  A
C1022      C1023   1.400       .  A
C1022      H1027   1.085       .  S
C1023      C1024   1.408       .  A
C1023      C1030   1.445       .  S
C1024      C1025   1.401       .  A
C1025      C1026   1.401       .  A
C1025      H1028   1.082       .  S
C1026      C1029   1.442       .  S
C1029      N1031   1.157   1_554  T
C1030      N1032   1.157       .  T
C1033      C1382   1.397       .  A
C1033      C1038   1.411       .  A
C1034      C1381   1.397       .  A
C1034      C1035   1.397       .  A
C1034      H1039   1.085       .  S
C1035      C1384   1.424       .  A
C1035      C1042   1.446       .  S
C1036      C1383   1.425       .  A
C1036      C1037   1.412       .  A
C1037      C1038   1.403       .  A
C1037      H1040   1.077   1_554  S
C1038      C1041   1.445   1_554  S
C1042      N1044   1.157       .  T
C1045      C1046   1.530       .  S
C1045      C1049   1.548       .  S
C1045      C1384   1.536       .  S
C1046      H1053   1.087       .  S
C1046      C1047   1.360       .  D
C1047      C1369   1.487       .  S
C1048      C1052   1.548       .  S
C1048      H1054   1.107       .  S
C1049      H1055   1.081       .  S
C1049      C1050   1.366       .  D
C1051      H1056   1.084       .  S
C1051      C1052   1.373       .  D
C1052      C1357   1.508       .  S
C1057      C1058   1.551   1_556  S
C1057      C1063   1.535       .  S
C1057      C1061   1.547       .  S
C1057      C1333   1.554       .  S
C1058      C1059   1.359       .  D
C1059      C1060   1.531   1_554  S
C1060      C1064   1.542       .  S
C1060      C1062   1.538       .  S
C1060      H1066   1.111       .  S
C1061      H1067   1.086   1_655  S
C1061      C1062   1.373       .  D
C1062      C1345   1.488       .  S
C1063      H1068   1.086       .  S
C1063      C1064   1.369       .  D
C1064      C1309   1.492       .  S
Zr1069     O1070   2.441       .  S
Zr1069     O1071   2.441       .  S
Zr1069     O1072   2.441       .  S
Zr1069     O1075   2.425       .  S
Zr1069     O1077   2.378       .  S
Zr1069     O1078   2.380       .  S
Zr1069     O1079   2.406       .  S
Zr1069     O1080   2.407       .  S
O1070      H1126   0.991       .  S
O1070      H1134   0.990       .  S
O1071      C1091   1.285       .  A
O1072      C1093   1.284       .  A
O1073     Zr1083   2.425       .  S
O1073      C1092   1.284       .  A
O1074     Zr1082   2.425       .  S
O1074      C1093   1.282       .  A
O1075      C1092   1.283       .  A
O1076     Zr1084   2.428       .  S
O1076      C1091   1.284       .  A
O1077     Zr1082   2.389       .  S
O1077     Zr1084   2.373       .  S
O1078     Zr1083   2.388       .  S
O1078     Zr1084   2.376       .  S
O1078      H1113   0.966       .  S
O1079     Zr1082   2.394       .  S
O1079     Zr1099   2.396       .  S
O1079      H1116   0.963       .  S
O1080     Zr1083   2.388       .  S
O1080     Zr1099   2.398       .  S
Zr1081     O1106   2.444       .  S
Zr1081     O1100   2.442       .  S
Zr1081     O1108   2.465       .  S
Zr1081     O1096   2.449       .  S
Zr1081     O1087   2.402       .  S
Zr1081     O1088   2.415       .  S
Zr1081     O1089   2.381       .  S
Zr1081     O1090   2.384       .  S
Zr1082     O1101   2.436       .  S
Zr1082     O1094   2.434       .  S
Zr1082     O1095   2.423       .  S
Zr1082     O1088   2.397       .  S
Zr1082     O1089   2.387       .  S
Zr1083     O1085   2.435       .  S
Zr1083     O1107   2.438       .  S
Zr1083     O1109   2.417       .  S
Zr1083     O1087   2.388       .  S
Zr1083     O1090   2.389       .  S
Zr1084     O1110   2.436       .  S
Zr1084     O1111   2.434       .  S
Zr1084     O1086   2.436       .  S
Zr1084     O1087   2.397       .  S
Zr1084     O1088   2.400       .  S
O1085      H1122   0.990       .  S
O1086      H1117   0.990       .  S
O1086      H1131   0.990       .  S
O1088      H1114   0.965       .  S
O1089     Zr1099   2.366       .  S
O1090     Zr1099   2.377       .  S
O1090      H1115   0.964       .  S
C1091      C1324   1.492       .  S
C1092      C1372   1.471       .  S
C1093      C1285   1.470       .  S
O1094      H1130   0.990       .  S
O1095      C1097   1.284       .  A
O1096      C1097   1.288       .  A
C1097      C1312   1.486       .  S
O1098     Zr1099   2.438       .  S
O1098      H1127   0.991       .  S
Zr1099     O1102   2.435       .  S
Zr1099     O1103   2.440       .  S
Zr1099     O1104   2.433       .  S
O1100      C1105   1.287       .  A
O1101      H1118   0.990       .  S
O1101      H1133   0.990       .  S
O1102      H1119   0.990       .  S
O1103      H1123   0.990       .  S
O1103      H1132   0.990       .  S
O1104      C1105   1.285       .  A
C1105      C1360   1.489       .  S
O1106      H1125   0.990       .  S
O1106      H1129   0.990       .  S
O1107      H1121   0.990       .  S
O1107      H1128   0.990       .  S
O1108      C1112   1.291       .  A
O1109      C1112   1.283       .  A
O1110      H1120   0.990       .  S
O1111      H1124   0.990       .  S
C1112      C1297   1.506       .  S
C1135      C1136   1.538       .  S
C1135      C1141   1.544       .  S
C1135      C1139   1.540       .  S
C1135      C1300   1.548       .  S
C1136      H1143   1.086       .  S
C1136      C1137   1.367       .  D
C1137      C1138   1.540       .  S
C1137      C1273   1.492       .  S
C1138      C1142   1.540       .  S
C1138      C1140   1.535       .  S
C1138      H1144   1.108       .  S
C1139      H1145   1.086       .  S
C1139      C1140   1.363       .  D
C1140      C1249   1.477       .  S
C1141      H1146   1.081       .  S
C1141      C1142   1.372       .  D
C1142      C1264   1.492       .  S
C1147      C1148   1.530       .  S
C1147      C1153   1.541       .  S
C1147      C1151   1.541       .  S
C1147      C1288   1.540       .  S
C1148      H1155   1.085       .  S
C1148      C1149   1.367       .  D
C1149      C1150   1.540       .  S
C1149      C1237   1.494       .  S
C1150      C1154   1.545       .  S
C1150      C1152   1.536       .  S
C1150      H1156   1.105       .  S
C1151      H1157   1.085       .  S
C1151      C1152   1.365       .  D
C1152      C1252   1.475       .  S
C1153      H1158   1.083       .  S
C1153      C1154   1.368       .  D
C1154      C1225   1.504       .  S
Zr1159     O1160   2.441       .  S
Zr1159     O1161   2.446       .  S
Zr1159     O1162   2.453       .  S
Zr1159     O1165   2.445   1_545  S
Zr1159     O1168   2.382   1_545  S
Zr1159     O1170   2.406   1_545  S
O1160      H1216   0.990       .  S
O1160      H1224   0.990       .  S
O1162      C1183   1.287       .  A
O1163     Zr1173   2.420       .  S
O1163      C1182   1.283       .  A
O1164     Zr1172   2.404       .  S
O1165      C1182   1.287       .  A
O1166     Zr1174   2.415   1_545  S
O1166      C1181   1.281       .  A
O1167     Zr1174   2.376   1_545  S
O1168     Zr1173   2.389       .  S
O1169     Zr1172   2.396       .  S
O1169     Zr1189   2.398   1_545  S
O1169      H1206   0.967       .  S
O1170     Zr1173   2.385       .  S
Zr1171     O1196   2.439       .  S
Zr1171     O1198   2.468       .  S
Zr1171     O1186   2.453       .  S
Zr1171     O1177   2.400       .  S
Zr1171     O1178   2.414   1_565  S
Zr1172     O1191   2.437       .  S
Zr1172     O1179   2.382       .  S
Zr1173     O1175   2.436       .  S
Zr1174     O1200   2.435       .  S
Zr1174     O1201   2.437       .  S
Zr1174     O1176   2.437   1_565  S
O1175      H1212   0.990       .  S
O1176      H1207   0.990       .  S
O1176      H1221   0.990       .  S
O1178      H1204   0.968       .  S
O1179     Zr1189   2.367   1_545  S
O1180     Zr1189   2.385       .  S
O1180      H1205   0.964       .  S
C1181      C1276   1.474       .  S
C1182      C1240   1.482       .  S
C1183      C1381   1.476       .  S
O1184      H1220   0.990       .  S
O1185      C1187   1.281       .  A
O1186      C1187   1.288   1_565  A
C1187      C1261   1.492       .  S
O1188     Zr1189   2.438   1_545  S
O1188      H1217   0.990       .  S
Zr1189     O1192   2.437   1_565  S
Zr1189     O1193   2.439       .  S
Zr1189     O1194   2.424       .  S
O1190      C1195   1.285       .  A
O1191      H1208   0.990       .  S
O1191      H1223   0.990       .  S
O1192      H1209   0.990       .  S
O1193      H1213   0.990       .  S
O1193      H1222   0.990       .  S
O1194      C1195   1.283       .  A
C1195      C1228   1.487       .  S
O1196      H1215   0.990       .  S
O1196      H1219   0.990       .  S
O1197      H1218   0.989       .  S
O1198      C1202   1.290       .  A
O1200      H1210   0.990       .  S
C1202      C1336   1.488       .  S
C1225      C1226   1.411       .  A
C1225      C1230   1.417       .  A
C1226      C1227   1.400       .  A
C1226      H1231   1.084       .  S
C1227      C1228   1.410       .  A
C1227      C1234   1.444       .  S
C1228      C1229   1.406       .  A
C1229      C1230   1.403       .  A
C1229      H1232   1.085       .  S
C1230      C1233   1.442       .  S
C1233      N1235   1.158   1_565  T
C1234      N1236   1.157       .  T
C1237      C1238   1.406       .  A
C1237      C1242   1.416       .  A
C1238      C1239   1.403       .  A
C1238      H1243   1.084       .  S
C1239      C1240   1.412       .  A
C1239      C1246   1.442       .  S
C1240      C1241   1.404       .  A
C1241      C1242   1.399       .  A
C1241      H1244   1.085       .  S
C1242      C1245   1.444       .  S
C1245      N1247   1.157       .  T
C1246      N1248   1.156   1_565  T
C1249      C1250   1.399   1_545  A
C1249      C1254   1.411       .  A
C1250      C1251   1.399       .  A
C1250      H1255   1.085   1_565  S
C1251      C1252   1.410       .  A
C1251      C1258   1.444       .  S
C1252      C1253   1.400       .  A
C1253      C1254   1.401   1_565  A
C1253      H1256   1.085       .  S
C1254      C1257   1.442       .  S
C1257      N1259   1.157       .  T
C1258      N1260   1.157       .  T
C1261      C1262   1.407       .  A
C1261      C1266   1.417       .  A
C1262      C1263   1.405       .  A
C1262      H1267   1.085   1_545  S
C1263      C1264   1.413       .  A
C1263      C1270   1.440   1_545  S
C1264      C1265   1.402       .  A
C1265      C1266   1.397       .  A
C1265      H1268   1.085       .  S
C1266      C1269   1.444       .  S
C1269      N1271   1.157   1_655  T
C1270      N1272   1.157       .  T
C1273      C1274   1.407       .  A
C1273      C1278   1.415       .  A
C1274      C1275   1.397       .  A
C1274      H1279   1.084       .  S
C1275      C1276   1.407       .  A
C1275      C1282   1.444       .  S
C1276      C1277   1.402       .  A
C1277      C1278   1.403       .  A
C1277      H1280   1.083       .  S
C1278      C1281   1.444       .  S
C1281      N1283   1.157       .  T
C1282      N1284   1.157       .  T
C1285      C1286   1.400       .  A
C1285      C1290   1.403       .  A
C1286      C1287   1.408       .  A
C1286      H1291   1.085       .  S
C1287      C1288   1.425       .  A
C1287      C1294   1.444       .  S
C1288      C1289   1.412       .  A
C1289      C1290   1.393       .  A
C1289      H1292   1.080       .  S
C1290      C1293   1.446       .  S
C1293      N1295   1.157       .  T
C1294      N1296   1.157       .  T
C1297      C1298   1.409       .  A
C1297      C1302   1.416       .  A
C1298      C1299   1.399       .  A
C1298      H1303   1.084       .  S
C1299      C1300   1.420       .  A
C1299      C1306   1.446       .  S
C1300      C1301   1.415       .  A
C1301      C1302   1.410       .  A
C1301      H1304   1.077       .  S
C1302      C1305   1.444       .  S
C1305      N1307   1.157       .  T
C1306      N1308   1.157       .  T
C1309      C1310   1.404       .  A
C1309      C1314   1.414       .  A
C1310      C1311   1.400       .  A
C1310      H1315   1.085       .  S
C1311      C1312   1.414       .  A
C1311      C1318   1.444       .  S
C1312      C1313   1.404       .  A
C1313      C1314   1.404       .  A
C1313      H1316   1.085       .  S
C1314      C1317   1.441       .  S
C1317      N1319   1.157       .  T
C1318      N1320   1.157       .  T
C1321      C1322   1.401       .  A
C1321      C1326   1.410       .  A
C1322      C1323   1.406       .  A
C1322      H1327   1.085       .  S
C1323      C1324   1.418       .  A
C1323      C1330   1.442       .  S
C1324      C1325   1.407       .  A
C1325      C1326   1.399       .  A
C1325      H1328   1.085       .  S
C1326      C1329   1.445       .  S
C1329      N1331   1.157       .  T
C1330      N1332   1.157       .  T
C1333      C1334   1.413       .  A
C1333      C1338   1.426       .  A
C1334      C1335   1.396       .  A
C1335      C1336   1.408       .  A
C1336      C1337   1.404       .  A
C1337      C1338   1.415       .  A
C1338      C1341   1.443       .  S
C1342      N1344   1.157       .  T
C1346      H1351   1.082       .  S
C1347      C1354   1.444       .  S
C1348      C1349   1.405       .  A
C1349      C1350   1.404       .  A
C1349      H1352   1.080       .  S
C1353      N1355   1.157       .  T
C1354      N1356   1.157       .  T
C1357      C1358   1.407       .  A
C1357      C1362   1.420       .  A
C1358      C1359   1.400       .  A
C1358      H1363   1.078       .  S
C1359      C1360   1.413       .  A
C1359      C1366   1.445       .  S
C1360      C1361   1.404       .  A
C1361      C1362   1.406       .  A
C1361      H1364   1.085       .  S
C1362      C1365   1.443       .  S
C1365      N1367   1.157       .  T
C1366      N1368   1.157       .  T
C1369      C1370   1.408       .  A
C1369      C1374   1.413       .  A
C1370      C1371   1.397       .  A
C1370      H1375   1.085       .  S
C1371      C1372   1.408       .  A
C1371      C1378   1.445       .  S
C1372      C1373   1.401       .  A
C1373      C1374   1.400       .  A
C1373      H1376   1.083       .  S
C1374      C1377   1.443       .  S
C1377      N1379   1.157       .  T
C1378      N1380   1.157       .  T
C1381      C1386   1.410       .  A
C1382      C1383   1.399       .  A
C1382      H1387   1.085       .  S
C1383      C1390   1.445       .  S
C1384      C1385   1.411       .  A
C1385      C1386   1.402       .  A
C1385      H1388   1.077       .  S
C1386      C1389   1.445       .  S
C1390      N1392   1.157       .  T
