geometry optimzed in LAMMPS
_audit_creation_date              2020-11-30 
_audit_creation_method            'lammps2cif' 
_symmetry_space_group_name_H-M    'P1' 
_symmetry_Int_Tables_number       1 
_symmetry_cell_setting            triclinic 
loop_ 
_symmetry_equiv_pos_as_xyz 
  x,y,z 
_cell_length_a                    42.71121175 
_cell_length_b                    44.88443815656689 
_cell_length_c                    42.56881857552771 
_cell_angle_alpha                 89.18052694501397 
_cell_angle_beta                  89.28221245830926 
_cell_angle_gamma                 92.28655050945959 
loop_ 
_atom_site_label 
_atom_site_type_symbol 
_atom_site_fract_x 
_atom_site_fract_y 
_atom_site_fract_z 
_atom_site_charge 
C1          C  0.58518313  0.87382672  0.70064910     0.02700
C2          C  0.59140226  0.90468001  0.70069156    -0.13400
C3          C  0.56702851  0.92406353  0.70628232     0.00200
C4          C  0.53641572  0.91216276  0.71219125    -0.12000
C5          C  0.53026277  0.88108344  0.71194446     0.02700
C6          C  0.55485928  0.86219695  0.70656091    -0.11400
H7          H  0.61485093  0.91359651  0.69534597     0.08300
H8          H  0.51720724  0.92701409  0.71487932     0.05800
H9          H  0.55004382  0.83834571  0.70502329     0.05700
C10         C  0.59893384  0.10313958  0.69271774     0.02700
C11         C  0.56845677  0.11319408  0.68873515    -0.13400
C12         C  0.54300383  0.09286414  0.68555373     0.00200
C13         C  0.54788304  0.06227768  0.68694823    -0.12000
C14         C  0.57791619  0.05179184  0.69172235     0.02700
C15         C  0.60360964  0.07222677  0.69417822    -0.11400
H16         H  0.56452492  0.13691069  0.68824791     0.08300
H17         H  0.52805987  0.04654932  0.68518558     0.05800
H18         H  0.62690595  0.06416075  0.69761420     0.05700
C19         C  0.90216646  0.77540048  0.48238905     0.02700
C20         C  0.88770081  0.78295152  0.45407818    -0.13400
C21         C  0.90480535  0.79839171  0.42987862     0.00200
C22         C  0.93656746  0.80626223  0.43503475    -0.12000
C23         C  0.95205192  0.79447458  0.46095137     0.02700
C24         C  0.93442127  0.78068595  0.48543454    -0.11400
H25         H  0.86343254  0.77596237  0.45071145     0.08300
H26         H  0.95013150  0.81848030  0.41710691     0.05800
H27         H  0.94613706  0.77227432  0.50599896     0.05700
C28         C  0.12817509  0.76000860  0.49673840     0.02700
C29         C  0.09737743  0.76920474  0.49420082    -0.13400
C30         C  0.08400807  0.77239739  0.46461970     0.00200
C31         C  0.10167982  0.76674365  0.43755223    -0.12000
C32         C  0.13213636  0.75612351  0.43993006     0.02700
C33         C  0.14479716  0.75190639  0.46978662    -0.11400
H34         H  0.08417229  0.77460773  0.51513060     0.08300
H35         H  0.09149725  0.77022952  0.41466216     0.05800
H36         H  0.16839924  0.74418171  0.47198763     0.05700
C37         C  0.62991123  0.75826272  0.37184728     0.02700
C38         C  0.59859731  0.76354417  0.36479918    -0.13400
C39         C  0.57590542  0.76292940  0.38883178     0.00200
C40         C  0.58459268  0.75772426  0.42000225    -0.12000
C41         C  0.61580132  0.75258184  0.42710294     0.02700
C42         C  0.63838002  0.75259490  0.40298853    -0.11400
H43         H  0.59180368  0.76729797  0.34066153     0.08300
H44         H  0.56704765  0.75742805  0.43864557     0.05800
H45         H  0.66252633  0.74831389  0.40846807     0.05700
C46         C  0.38883901  0.77456884  0.38016254     0.02700
C47         C  0.41983037  0.77263245  0.36895362    -0.13400
C48         C  0.44435167  0.77032667  0.39030119     0.00200
C49         C  0.43796151  0.76882052  0.42250520    -0.12000
C50         C  0.40734655  0.77010758  0.43371455     0.02700
C51         C  0.38274112  0.77332356  0.41265824    -0.11400
H52         H  0.42488316  0.77376831  0.34394591     0.08300
H53         H  0.45695290  0.76656756  0.43895437     0.05800
H54         H  0.35898612  0.77500579  0.42153239     0.05700
C55         C  0.82323976  0.56525130  0.80208616     0.02700
C56         C  0.81531055  0.53741657  0.78920191    -0.13400
C57         C  0.81372067  0.51173146  0.80812603     0.00200
C58         C  0.81960378  0.51386703  0.84030682    -0.12000
C59         C  0.82686505  0.54169191  0.85364819     0.02700
C60         C  0.82983772  0.56720295  0.83427338    -0.11400
H61         H  0.80919808  0.53588041  0.76461286     0.08300
H62         H  0.81669195  0.49417853  0.85527177     0.05800
H63         H  0.83481659  0.58877867  0.84460055     0.05700
C64         C  0.80946441  0.56116439  0.03937638     0.02700
C65         C  0.80913873  0.53274440  0.05364819    -0.13400
C66         C  0.81315511  0.50732681  0.03554093     0.00200
C67         C  0.81818022  0.51048503  0.00301006    -0.12000
C68         C  0.81856851  0.53885366  0.98863162     0.02700
C69         C  0.81385070  0.56407766  0.00679803    -0.11400
H70         H  0.80583164  0.53041805  0.07886836     0.08300
H71         H  0.82122208  0.49090304  0.98885676     0.05800
H72         H  0.81358537  0.58591276  0.99560696     0.05700
Zr73       Zr  0.73769310  0.24652068  0.75240176     2.17500
O74         O  0.75645221  0.19664721  0.74358046    -0.51800
O75         O  0.71589676  0.23036517  0.80386674    -0.75000
O76         O  0.78911696  0.23891252  0.77592746    -0.81700
O77         O  0.66747955  0.22859105  0.70016301    -0.83500
O78         O  0.81049693  0.28446284  0.78694682    -0.79100
O79         O  0.70588135  0.20720874  0.72790464    -0.90800
O80         O  0.68693916  0.26806304  0.82208478    -0.76700
O81         O  0.74147501  0.28865951  0.78583870    -0.86200
O82         O  0.68708462  0.26744557  0.75353680    -0.85900
O83         O  0.77733448  0.27934852  0.72821179    -0.72700
O84         O  0.72588814  0.26008049  0.69900487    -0.84800
Zr85       Zr  0.71994865  0.35758133  0.71111894     2.26400
Zr86       Zr  0.78002540  0.32196494  0.76153860     2.06300
Zr87       Zr  0.67610241  0.28248617  0.70069710     2.10000
Zr88       Zr  0.69126641  0.30971536  0.78641666     1.78800
O89         O  0.66932684  0.27400517  0.64479333    -0.93600
O90         O  0.70887105  0.32956725  0.83647995    -0.41400
O91         O  0.68021009  0.32472396  0.73411179    -0.78000
O92         O  0.72990894  0.34404436  0.76479576    -0.96700
O93         O  0.76984453  0.33610794  0.70853593    -0.90000
O94         O  0.71475945  0.31599003  0.67679104    -0.92900
C95         C  0.69822964  0.24224603  0.82452919     1.00900
C96         C  0.68118792  0.20571936  0.71099959     1.13800
C97         C  0.81087989  0.25590696  0.78755412     1.04600
O98         O  0.80197359  0.33581733  0.81200862    -0.95000
O99         O  0.78666859  0.37513152  0.76915652    -0.90800
O100        O  0.75012679  0.39650924  0.73885147    -0.83900
C101        C  0.77295697  0.39789169  0.75828739     1.11200
O102        O  0.78661738  0.24606346  0.66228242    -0.97000
Zr103      Zr  0.76460403  0.29369675  0.67559504     1.88900
O104        O  0.74710908  0.37333496  0.66323369    -0.73600
O105        O  0.82851915  0.33582109  0.73352951    -0.52900
O106        O  0.82132448  0.29915034  0.66929147    -0.97600
O107        O  0.74707310  0.27778243  0.62392150    -0.54800
O108        O  0.77333326  0.33621216  0.64062431    -0.74200
C109        C  0.76439038  0.36307338  0.64148537     0.98200
O110        O  0.69987796  0.40715946  0.70233350    -0.63000
O111        O  0.62100819  0.26911899  0.71105434    -0.57800
O112        O  0.66596072  0.36606518  0.69623192    -0.94500
O113        O  0.63983375  0.32150878  0.68951491    -0.92900
O114        O  0.63474866  0.30056549  0.79009619    -0.93200
O115        O  0.66334353  0.35240112  0.80519824    -0.92000
C116        C  0.64112113  0.35011244  0.69029851     1.17000
H117        H  0.67127874  0.25314606  0.76139790     0.33000
H118        H  0.72996272  0.36081406  0.77870940     0.43800
H119        H  0.70836043  0.32233700  0.65615104     0.37300
H120        H  0.79731972  0.27006145  0.72717918     0.33800
H121        H  0.69405428  0.32063251  0.85237925     0.25600
H122        H  0.84308773  0.34264373  0.75007572     0.31600
H123        H  0.82537960  0.29635948  0.64659734     0.37500
H124        H  0.62667340  0.30831012  0.76998981     0.31900
H125        H  0.61427342  0.25681945  0.69303780     0.30800
H126        H  0.64720413  0.27849796  0.64083853     0.32500
H127        H  0.73454398  0.29417505  0.61567512     0.31400
H128        H  0.67719743  0.36999114  0.79981835     0.35400
H129        H  0.69548400  0.41508364  0.72344593     0.28200
H130        H  0.75882684  0.18760770  0.76470839     0.32400
H131        H  0.79568132  0.24867810  0.64085471     0.35300
H132        H  0.62082965  0.25507412  0.72920947     0.27900
H133        H  0.71781524  0.41966769  0.69401590     0.40700
H134        H  0.78375077  0.33545402  0.82662101     0.30800
H135        H  0.72884405  0.31985347  0.84051950     0.38400
H136        H  0.73154749  0.26123146  0.62831133     0.30300
H137        H  0.83669857  0.31678598  0.72623798     0.30300
H138        H  0.77802766  0.19947339  0.73496900     0.30600
Zr139      Zr  0.36962128  0.77509642  0.64235654     2.17500
O140        O  0.42313516  0.76428710  0.62653837    -0.51800
O141        O  0.38081088  0.72628991  0.66391239    -0.75000
O142        O  0.40889402  0.80198699  0.67305473    -0.81700
O143        O  0.33933612  0.75750543  0.56046098    -0.83500
O144        O  0.38510259  0.83009302  0.70961937    -0.79100
O145        O  0.38379163  0.76932399  0.58701819    -0.90800
O146        O  0.33880719  0.70582251  0.69063700    -0.76700
O147        O  0.34253156  0.77164709  0.69176604    -0.86200
O148        O  0.32531682  0.74194261  0.63467129    -0.85900
O149        O  0.35622620  0.82568422  0.65364537    -0.72700
O150        O  0.33990052  0.79830540  0.60221336    -0.84800
Zr151      Zr  0.25308357  0.81307475  0.65472142     2.26400
Zr152      Zr  0.32837969  0.82160626  0.70280139     2.06300
Zr153      Zr  0.29542520  0.76545840  0.59517265     2.10000
Zr154      Zr  0.29706932  0.74011251  0.68339318     1.78800
O155        O  0.28602981  0.77281459  0.53931938    -0.93600
O156        O  0.29867644  0.73359922  0.74023380    -0.41400
O157        O  0.26601496  0.76238567  0.64341270    -0.78000
O158        O  0.28268831  0.78963014  0.69560710    -0.96700
O159        O  0.29795889  0.84519055  0.66316907    -0.90000
O160        O  0.28090029  0.81534007  0.60577401    -0.92900
C161        C  0.36712745  0.70545214  0.68051474     1.00900
C162        C  0.36903488  0.76222730  0.56192577     1.13800
C163        C  0.40956256  0.82117133  0.69509223     1.04600
O164        O  0.33464136  0.79856381  0.75430745    -0.95000
O165        O  0.28480155  0.84269876  0.73104020    -0.90800
O166        O  0.23936108  0.83488101  0.70500729    -0.83900
C167        C  0.25490820  0.84424112  0.72878909     1.11200
O168        O  0.37559607  0.87125212  0.59861651    -0.97000
Zr169      Zr  0.32533897  0.84763527  0.61433399     1.88900
O170        O  0.23866539  0.85961794  0.62768928    -0.73600
O171        O  0.33988274  0.87071278  0.72463489    -0.52900
O172        O  0.33328831  0.89668764  0.63736023    -0.97600
O173        O  0.33302805  0.85226971  0.55765570    -0.54800
O174        O  0.28203994  0.87735077  0.60114493    -0.74200
C175        C  0.25301109  0.87817125  0.60849783     0.98200
O176        O  0.20023702  0.80741978  0.67703374    -0.63000
O177        O  0.28437674  0.71269148  0.58562091    -0.57800
O178        O  0.21488609  0.79073385  0.61925749    -0.94500
O179        O  0.24106604  0.76593535  0.58167873    -0.92900
O180        O  0.27646161  0.69175972  0.66603163    -0.93200
O181        O  0.24604872  0.72423703  0.70527368    -0.92000
C182        C  0.21610571  0.77582505  0.59384944     1.17000
H183        H  0.33150176  0.72250421  0.62813326     0.33000
H184        H  0.27049614  0.78805259  0.71487509     0.43800
H185        H  0.26818553  0.82243579  0.58889739     0.37300
H186        H  0.37397930  0.83953133  0.65426206     0.33800
H187        H  0.29761659  0.71171823  0.74372503     0.25600
H188        H  0.35117144  0.86686339  0.74437009     0.31600
H189        H  0.34887778  0.89383316  0.65403230     0.37500
H190        H  0.29441640  0.68210279  0.65604953     0.31900
H191        H  0.30507995  0.70392166  0.58256365     0.30800
H192        H  0.27923952  0.79357854  0.53726606     0.32500
H193        H  0.32605969  0.87241946  0.55209199     0.31400
H194        H  0.23238772  0.74101222  0.70060259     0.35400
H195        H  0.18647952  0.81780713  0.66224747     0.28200
H196        H  0.43346388  0.75705593  0.64573579     0.32400
H197        H  0.37068731  0.89057402  0.58869738     0.35300
H198        H  0.27632689  0.70432304  0.60589011     0.27900
H199        H  0.19408532  0.78599313  0.67548091     0.40700
H200        H  0.35344358  0.80884357  0.76307698     0.30800
H201        H  0.32033492  0.73980479  0.74591928     0.38400
H202        H  0.31704180  0.83838516  0.54870493     0.30300
H203        H  0.35582683  0.88035225  0.71034247     0.30300
H204        H  0.43383373  0.78378023  0.62151112     0.30600
C205        C  0.09295658  0.62206810  0.21919604     0.02700
C206        C  0.06366713  0.63414901  0.21404289    -0.13400
C207        C  0.03651561  0.61566838  0.21387286     0.00200
C208        C  0.03874993  0.58488184  0.21898598    -0.12000
C209        C  0.06803290  0.57272826  0.22429298     0.02700
C210        C  0.09510856  0.59136661  0.22440351    -0.11400
H211        H  0.06201248  0.65797894  0.21030043     0.08300
H212        H  0.01780994  0.57043058  0.21871842     0.05800
H213        H  0.11781458  0.58193608  0.22778298     0.05700
C214        C  0.09068129  0.39603322  0.22589962     0.02700
C215        C  0.09419073  0.42690432  0.23098422    -0.13400
C216        C  0.06779702  0.44470136  0.23048261     0.00200
C217        C  0.03779276  0.43136998  0.22704222    -0.12000
C218        C  0.03419661  0.40060706  0.22279280     0.02700
C219        C  0.06054331  0.38332965  0.22158301    -0.11400
H220        H  0.11727672  0.43724187  0.23400327     0.08300
H221        H  0.01747497  0.44506812  0.22617396     0.05800
H222        H  0.05754530  0.35980026  0.21639494     0.05700
Zr223      Zr  0.83656972  0.65615043  0.20705229     2.17500
O224        O  0.86022575  0.60930177  0.19317933    -0.51800
O225        O  0.82184847  0.64231546  0.15430258    -0.75000
O226        O  0.81016087  0.61338136  0.23258490    -0.81700
O227        O  0.91575494  0.69881622  0.19988953    -0.83500
O228        O  0.76924763  0.62890341  0.26162707    -0.79100
O229        O  0.89308946  0.65242582  0.20613225    -0.90800
O230        O  0.79003430  0.67568827  0.13194846    -0.76700
O231        O  0.78443462  0.67172023  0.20058840    -0.86200
O232        O  0.84050027  0.69901040  0.17321002    -0.85900
O233        O  0.81958528  0.66648647  0.25989765    -0.72700
O234        O  0.86900254  0.69148575  0.23445962    -0.84800
Zr235      Zr  0.80283892  0.76342507  0.24706724     2.26400
Zr236      Zr  0.76758587  0.68271391  0.25258050     2.06300
Zr237      Zr  0.87327044  0.73408390  0.20056108     2.10000
Zr238      Zr  0.78838924  0.71607324  0.16887561     1.78800
O239        O  0.92200285  0.75873725  0.21711529    -0.93600
O240        O  0.73360108  0.70270978  0.15876678    -0.41400
O241        O  0.82135927  0.75194090  0.19506840    -0.78000
O242        O  0.76939324  0.72731576  0.22045715    -0.96700
O243        O  0.79871771  0.71974619  0.27968213    -0.90000
O244        O  0.85470658  0.74642468  0.25172655    -0.92900
C245        C  0.80486410  0.65149623  0.13188658     1.00900
C246        C  0.91710201  0.67032972  0.20315273     1.13800
C247        C  0.78762380  0.60876932  0.25237920     1.04600
O248        O  0.72145247  0.66943016  0.22202530    -0.95000
O249        O  0.73440232  0.71564289  0.27991726    -0.90800
O250        O  0.75097036  0.76379946  0.27321361    -0.83900
C251        C  0.73094749  0.74352032  0.28333501     1.11200
O252        O  0.87269562  0.66198703  0.31322955    -0.97000
Zr253      Zr  0.85040491  0.70388976  0.28548501     1.88900
O254        O  0.82586952  0.78435035  0.29560928    -0.73600
O255        O  0.73848533  0.66498559  0.29942608    -0.52900
O256        O  0.82193567  0.69158353  0.33421083    -0.97600
O257        O  0.90604560  0.71596642  0.29262667    -0.54800
O258        O  0.85388247  0.74734054  0.31700798    -0.74200
C259        C  0.84466141  0.77403680  0.31626197     0.98200
O260        O  0.77474636  0.80794965  0.23336954    -0.63000
O261        O  0.89154039  0.74060197  0.14629231    -0.57800
O262        O  0.83335960  0.80589731  0.22403443    -0.94500
O263        O  0.87407374  0.78799745  0.19585176    -0.92900
O264        O  0.80986275  0.74042151  0.12133776    -0.93200
O265        O  0.75969587  0.75863776  0.15044612    -0.92000
C266        C  0.85827624  0.80937527  0.20676789     1.17000
H267        H  0.84942021  0.69446822  0.15302588     0.33000
H268        H  0.74856187  0.73470722  0.21859784     0.43800
H269        H  0.86879970  0.76172222  0.25978280     0.37300
H270        H  0.82073078  0.64973950  0.27429025     0.33800
H271        H  0.73094292  0.70680634  0.13605929     0.25600
H272        H  0.72289168  0.64977585  0.29213980     0.31600
H273        H  0.80534662  0.67681385  0.32816003     0.37500
H274        H  0.80601848  0.72604387  0.10426455     0.31900
H275        H  0.89708112  0.72050152  0.13934455     0.30800
H276        H  0.93501292  0.76070009  0.19772101     0.32500
H277        H  0.91701662  0.70643376  0.27507020     0.31400
H278        H  0.75497496  0.76985679  0.16967815     0.35400
H279        H  0.75401645  0.80065211  0.22585430     0.28200
H280        H  0.84309397  0.59633038  0.18477485     0.32400
H281        H  0.87668194  0.66890529  0.33485566     0.35300
H282        H  0.87265917  0.74529711  0.13423362     0.27900
H283        H  0.77040816  0.81776016  0.25355257     0.40700
H284        H  0.71283905  0.65070147  0.23190452     0.30800
H285        H  0.73212223  0.68068847  0.16060978     0.38400
H286        H  0.91264371  0.70543784  0.31185568     0.30300
H287        H  0.75339871  0.65379550  0.31220389     0.30300
H288        H  0.86585956  0.59956503  0.21322365     0.30600
C289        C  0.91142424  0.21818725  0.86632885     0.02700
C290        C  0.94418167  0.22231326  0.86260335    -0.13400
C291        C  0.96328217  0.22693884  0.88893236     0.00200
C292        C  0.94977572  0.22516091  0.91914114    -0.12000
C293        C  0.91758371  0.21836394  0.92331150     0.02700
C294        C  0.89887669  0.21426255  0.89679695    -0.11400
H295        H  0.95446030  0.22456597  0.83925490     0.08300
H296        H  0.96419461  0.23009326  0.93932773     0.05800
H297        H  0.87381006  0.21066995  0.90005830     0.05700
C298        C  0.14885364  0.26387184  0.86229349     0.02700
C299        C  0.15928299  0.27202070  0.89208212    -0.13400
C300        C  0.13815222  0.27479161  0.91699857     0.00200
C301        C  0.10591283  0.27191627  0.91160104    -0.12000
C302        C  0.09469606  0.26437519  0.88172791     0.02700
C303        C  0.11639070  0.26062285  0.85686287    -0.11400
H304        H  0.18423125  0.27301425  0.89669937     0.08300
H305        H  0.08968200  0.27273389  0.93133245     0.05800
H306        H  0.10818502  0.25323112  0.83418323     0.05700
Zr307      Zr  0.84683304  0.34879699  0.15455788     2.17500
O308        O  0.87209530  0.39720780  0.16565806    -0.51800
O309        O  0.81902783  0.36496345  0.20061136    -0.75000
O310        O  0.82837779  0.38862943  0.12071172    -0.81700
O311        O  0.91655437  0.31023781  0.19324301    -0.83500
O312        O  0.79497763  0.36890181  0.08468942    -0.79100
O313        O  0.89856561  0.35474902  0.17690350    -0.90800
O314        O  0.78915086  0.32725683  0.22290313    -0.76700
O315        O  0.79444228  0.32958600  0.15002182    -0.86200
O316        O  0.84187450  0.30779893  0.19067351    -0.85900
O317        O  0.84346354  0.33455742  0.10041189    -0.72700
O318        O  0.88587092  0.31493617  0.13934987    -0.84800
Zr319      Zr  0.82185597  0.23881275  0.11414643     2.26400
Zr320      Zr  0.79055937  0.31508313  0.09609258     2.06300
Zr321      Zr  0.87907295  0.27300959  0.17400430     2.10000
Zr322      Zr  0.78998959  0.28767565  0.18524650     1.78800
O323        O  0.93150972  0.25594321  0.16324700    -0.93600
O324        O  0.73556053  0.30198452  0.18528200    -0.41400
O325        O  0.82689029  0.25233519  0.16846227    -0.78000
O326        O  0.78351005  0.27330161  0.13200249    -0.96700
O327        O  0.82879454  0.28071916  0.07934618    -0.90000
O328        O  0.87449421  0.25741614  0.12067722    -0.92900
C329        C  0.80167688  0.35358937  0.22276416     1.00900
C330        C  0.91912636  0.33866525  0.18979437     1.13800
C331        C  0.81068797  0.39094628  0.09668512     1.04600
O332        O  0.74014184  0.33631534  0.10743570    -0.95000
O333        O  0.75515840  0.27640642  0.07463824    -0.90800
O334        O  0.76959865  0.23085278  0.09164445    -0.83900
C335        C  0.75044323  0.24795881  0.07779941     1.11200
O336        O  0.90974971  0.34519457  0.06938279    -0.97000
Zr337      Zr  0.88129265  0.29946953  0.08643725     1.88900
O338        O  0.84507340  0.22844244  0.06231676    -0.73600
O339        O  0.78355886  0.32160064  0.03974923    -0.52900
O340        O  0.87661096  0.31179633  0.03080184    -0.97600
O341        O  0.93709690  0.29366200  0.09504516    -0.54800
O342        O  0.89074586  0.25555678  0.05731115    -0.74200
C343        C  0.87088699  0.23590544  0.04781297     0.98200
O344        O  0.80798821  0.18572727  0.11071743    -0.63000
O345        O  0.88289765  0.26264105  0.23016788    -0.57800
O346        O  0.84394294  0.19935462  0.14641984    -0.94500
O347        O  0.87708963  0.22015466  0.18214747    -0.92900
O348        O  0.79945718  0.26220665  0.23494743    -0.93200
O349        O  0.75279473  0.24654252  0.19770556    -0.92000
C350        C  0.86369801  0.19777561  0.16891728     1.17000
H351        H  0.84643233  0.31370731  0.21197069     0.33000
H352        H  0.76222402  0.26532202  0.13223084     0.43800
H353        H  0.88926505  0.24225537  0.11615887     0.37300
H354        H  0.84823190  0.35081793  0.08589878     0.33800
H355        H  0.72891612  0.30105453  0.20765299     0.25600
H356        H  0.76521812  0.33429616  0.03785296     0.31600
H357        H  0.89623243  0.30528803  0.02085688     0.37500
H358        H  0.80957547  0.27750715  0.24840016     0.31900
H359        H  0.88171530  0.28223134  0.24039854     0.30800
H360        H  0.93735337  0.24517300  0.18263333     0.32500
H361        H  0.93987719  0.27187285  0.09515667     0.31400
H362        H  0.76064658  0.22952276  0.18578918     0.35400
H363        H  0.78573519  0.18315840  0.11735250     0.28200
H364        H  0.85494259  0.41082294  0.17001478     0.32400
H365        H  0.92875762  0.33882699  0.05820012     0.35300
H366        H  0.86287197  0.25199992  0.23595762     0.27900
H367        H  0.80839466  0.18135768  0.08800393     0.40700
H368        H  0.74427782  0.35127298  0.12389528     0.30800
H369        H  0.73649205  0.32352391  0.17985923     0.38400
H370        H  0.94066481  0.29963467  0.11704701     0.30300
H371        H  0.80164517  0.33456558  0.03263238     0.30300
H372        H  0.88176974  0.40458201  0.14563954     0.30600
C373        C  0.41604824  0.26017779  0.98415647     0.02700
C374        C  0.40526500  0.26207363  0.95322413    -0.13400
C375        C  0.42630273  0.26653904  0.92768563     0.00200
C376        C  0.45866658  0.26825558  0.93405567    -0.12000
C377        C  0.46961642  0.26157449  0.96422549     0.02700
C378        C  0.44827452  0.25886648  0.98947842    -0.11400
H379        H  0.38031655  0.25962581  0.94921823     0.08300
H380        H  0.47554603  0.27264690  0.91523625     0.05800
H381        H  0.45665460  0.25484615  0.01302883     0.05700
C382        C  0.64606506  0.21702935  0.00308699     0.02700
C383        C  0.66136702  0.21411535  0.97392461    -0.13400
C384        C  0.64614071  0.21963493  0.94568381     0.00200
C385        C  0.61458163  0.22725021  0.94676745    -0.12000
C386        C  0.59822948  0.22803042  0.97551457     0.02700
C387        C  0.61378713  0.22206653  0.00361694    -0.11400
H388        H  0.68597897  0.20921283  0.97319046     0.08300
H389        H  0.60273848  0.23291232  0.92524663     0.05800
H390        H  0.60115782  0.22295534  0.02577515     0.05700
C391        C  0.22212852  0.93526318  0.80797067     0.02700
C392        C  0.22025551  0.94229801  0.83998239    -0.13400
C393        C  0.22427419  0.97208872  0.84939459     0.00200
C394        C  0.22868198  0.99480458  0.82667859    -0.12000
C395        C  0.23067677  0.98787130  0.79481747     0.02700
C396        C  0.22718590  0.95827035  0.78556472    -0.11400
H397        H  0.21729878  0.92465425  0.85752841     0.08300
H398        H  0.23294680  0.01764486  0.83396860     0.05800
H399        H  0.23025428  0.95297413  0.76096420     0.05700
C400        C  0.25212201  0.97126688  0.03157338     0.02700
C401        C  0.24741608  0.96870718  0.99918266    -0.13400
C402        C  0.24326439  0.99426825  0.98059678     0.00200
C403        C  0.24534790  0.02255197  0.99407052    -0.12000
C404        C  0.25138804  0.02518971  0.02616958     0.02700
C405        C  0.25449488  0.99961356  0.04473748    -0.11400
H406        H  0.24601447  0.94687619  0.98861419     0.08300
H407        H  0.24229086  0.04232380  0.97969551     0.05800
H408        H  0.25780170  0.00182291  0.06983205     0.05700
Zr409      Zr  0.32228230  0.24110326  0.74293855     2.17500
O410        O  0.30180741  0.29072057  0.73635478    -0.51800
O411        O  0.34997265  0.25437667  0.79175541    -0.75000
O412        O  0.27348518  0.24623148  0.77331922    -0.81700
O413        O  0.39591661  0.26108910  0.69506722    -0.83500
O414        O  0.24624261  0.20171956  0.77174348    -0.79100
O415        O  0.35604635  0.28144993  0.72228559    -0.90800
O416        O  0.37138612  0.21199439  0.80965614    -0.76700
O417        O  0.31077126  0.19567270  0.77094261    -0.86200
O418        O  0.37071431  0.21672483  0.74568386    -0.85900
O419        O  0.28424570  0.21415471  0.71156155    -0.72700
O420        O  0.33874773  0.23228446  0.68951031    -0.84800
Zr421      Zr  0.33953180  0.13411245  0.69313685     2.26400
Zr422      Zr  0.27428261  0.16785268  0.73938758     2.06300
Zr423      Zr  0.38695926  0.20740789  0.69304144     2.10000
Zr424      Zr  0.35917386  0.17189447  0.77479130     1.78800
O425        O  0.40334219  0.22138042  0.63967926    -0.93600
O426        O  0.33281014  0.15896810  0.82454563    -0.41400
O427        O  0.37695536  0.16232605  0.72275447    -0.78000
O428        O  0.32218409  0.14240652  0.74622655    -0.96700
O429        O  0.29111067  0.15795224  0.68722637    -0.90000
O430        O  0.35043846  0.17848437  0.66282800    -0.92900
C431        C  0.36690827  0.23992790  0.81116343     1.00900
C432        C  0.38181640  0.28332918  0.70648572     1.13800
C433        C  0.24984817  0.22871480  0.78075391     1.04600
O434        O  0.24151702  0.14598628  0.78156096    -0.95000
O435        O  0.26464760  0.11423979  0.73918531    -0.90800
O436        O  0.30520269  0.09363851  0.71373629    -0.83900
C437        C  0.27935981  0.09170497  0.72946917     1.11200
O438        O  0.29087638  0.25199409  0.63658801    -0.97000
Zr439      Zr  0.30220786  0.20332692  0.65908692     1.88900
O440        O  0.31654452  0.12262503  0.64334483    -0.73600
O441        O  0.22768750  0.16919395  0.70711259    -0.52900
O442        O  0.24616111  0.20921932  0.65278385    -0.97600
O443        O  0.32763331  0.21658557  0.60882440    -0.54800
O444        O  0.28817016  0.16109032  0.62613724    -0.74200
C445        C  0.29696038  0.13411339  0.62475624     0.98200
O446        O  0.36090283  0.08583305  0.68124807    -0.63000
O447        O  0.43938727  0.21655272  0.71384111    -0.57800
O448        O  0.39471917  0.12496389  0.68357098    -0.94500
O449        O  0.42247436  0.16909267  0.67856344    -0.92900
O450        O  0.41541910  0.16728422  0.78027917    -0.93200
O451        O  0.37271622  0.12392938  0.79727072    -0.92000
C452        C  0.42030266  0.14053564  0.67908697     1.17000
H453        H  0.38709533  0.22900710  0.75492364     0.33000
H454        H  0.31916250  0.12434440  0.75857659     0.43800
H455        H  0.35914256  0.17378113  0.64257830     0.37300
H456        H  0.26532348  0.22518691  0.71054557     0.33800
H457        H  0.32192766  0.17711277  0.83067470     0.25600
H458        H  0.21374019  0.15278098  0.71558930     0.31600
H459        H  0.24196985  0.20385803  0.63071495     0.37500
H460        H  0.41876161  0.16548077  0.80319033     0.31900
H461        H  0.45166133  0.22592315  0.69618568     0.30800
H462        H  0.42561398  0.22804939  0.64146750     0.32500
H463        H  0.33475740  0.19768665  0.60001475     0.31400
H464        H  0.36940024  0.10951735  0.78013445     0.35400
H465        H  0.36515546  0.07634651  0.70179338     0.28200
H466        H  0.29645746  0.29750916  0.75772179     0.32400
H467        H  0.27875080  0.24799815  0.61730908     0.35300
H468        H  0.43744031  0.23268115  0.72927171     0.27900
H469        H  0.34343838  0.07360433  0.67238782     0.40700
H470        H  0.25649300  0.13787624  0.79673056     0.30800
H471        H  0.31568589  0.14457623  0.81892449     0.38400
H472        H  0.34712191  0.22786270  0.61436843     0.30300
H473        H  0.21733617  0.18757654  0.71339414     0.30300
H474        H  0.28148703  0.28749745  0.72575832     0.30600
C475        C  0.21892218  0.08778616  0.32921242     0.02700
C476        C  0.21680402  0.06376349  0.30846338    -0.13400
C477        C  0.21138377  0.03462739  0.31988907     0.00200
C478        C  0.20741392  0.02946151  0.35217703    -0.12000
C479        C  0.20972948  0.05316349  0.37317883     0.02700
C480        C  0.21540579  0.08244672  0.36169873    -0.11400
H481        H  0.22034246  0.06765757  0.28344820     0.08300
H482        H  0.20426911  0.00678060  0.36111580     0.05800
H483        H  0.21813869  0.10071802  0.37792518     0.05700
C484        C  0.23867324  0.04035541  0.55329310     0.02700
C485        C  0.22865035  0.04588375  0.52283572    -0.13400
C486        C  0.21621340  0.02269916  0.50475779     0.00200
C487        C  0.21186657  0.99393354  0.51809436    -0.12000
C488        C  0.22257730  0.98787516  0.54872890     0.02700
C489        C  0.23625992  0.01141291  0.56597249    -0.11400
H490        H  0.23222057  0.06801702  0.51251462     0.08300
H491        H  0.20203800  0.97606289  0.50399985     0.05800
H492        H  0.24578618  0.00714475  0.58900904     0.05700
Zr493      Zr  0.19916081  0.23351645  0.19487299     2.17500
O494        O  0.20882840  0.25485095  0.24648218    -0.51800
O495        O  0.14727200  0.21166624  0.21130397    -0.75000
O496        O  0.17587765  0.28135911  0.20237771    -0.81700
O497        O  0.24401588  0.16658511  0.21695437    -0.83500
O498        O  0.17045009  0.30380578  0.15483444    -0.79100
O499        O  0.21798050  0.20445148  0.23833962    -0.90800
O500        O  0.12815128  0.18635878  0.16942197    -0.76700
O501        O  0.16713094  0.23680045  0.14965504    -0.86200
O502        O  0.19722506  0.18481295  0.17312718    -0.85900
O503        O  0.22585484  0.27028895  0.16106786    -0.72700
O504        O  0.25277409  0.22245616  0.18269678    -0.84800
Zr505      Zr  0.24339962  0.21268921  0.08026732     2.26400
Zr506      Zr  0.19378440  0.27254508  0.11530214     2.06300
Zr507      Zr  0.25015679  0.17397724  0.16023490     2.10000
Zr508      Zr  0.16579705  0.18831765  0.12767571     1.78800
O509        O  0.30553845  0.17008161  0.17180176    -0.93600
O510        O  0.11905099  0.20577498  0.10213056    -0.41400
O511        O  0.21804706  0.17625169  0.11475417    -0.78000
O512        O  0.19022210  0.22397184  0.09295484    -0.96700
O513        O  0.24658213  0.26148430  0.10146605    -0.90000
O514        O  0.27629897  0.20921156  0.12509574    -0.92900
C515        C  0.12603802  0.19555305  0.19748864     1.00900
C516        C  0.23228459  0.18004852  0.24053658     1.13800
C517        C  0.16725285  0.30291880  0.18491368     1.04600
O518        O  0.14124163  0.28509240  0.09962418    -0.95000
O519        O  0.18935997  0.27637700  0.05857596    -0.90800
O520        O  0.21802526  0.23949595  0.03807516    -0.83900
C521        C  0.19912606  0.26093818  0.03556206     1.11200
O522        O  0.29267286  0.28380470  0.19493277    -0.97000
Zr523      Zr  0.27826196  0.25793638  0.14687415     1.88900
O524        O  0.29567207  0.23062816  0.06567777    -0.73600
O525        O  0.21640340  0.32106581  0.09923217    -0.52900
O526        O  0.28356925  0.31123254  0.13533285    -0.97600
O527        O  0.32907641  0.24493249  0.16746418    -0.54800
O528        O  0.31568068  0.26103009  0.10323576    -0.74200
C529        C  0.31709301  0.24813285  0.07660667     0.98200
O530        O  0.24758261  0.19892361  0.02507357    -0.63000
O531        O  0.24281373  0.12141957  0.17501730    -0.57800
O532        O  0.25316248  0.16028785  0.07231959    -0.94500
O533        O  0.25939728  0.13753043  0.11972552    -0.92900
O534        O  0.15071630  0.13658269  0.14010304    -0.93200
O535        O  0.15436053  0.15902370  0.08117801    -0.92000
C536        C  0.25797436  0.13736181  0.08961342     1.17000
H537        H  0.18821687  0.17018386  0.18781246     0.33000
H538        H  0.17694200  0.22347002  0.07549306     0.43800
H539        H  0.29681148  0.20254931  0.11949673     0.37300
H540        H  0.22725863  0.28943769  0.17110730     0.33800
H541        H  0.10145564  0.19385342  0.11198091     0.25600
H542        H  0.19826988  0.33398931  0.09719364     0.31600
H543        H  0.30601172  0.31498825  0.12995537     0.37500
H544        H  0.12756620  0.13540088  0.13878934     0.31900
H545        H  0.25873263  0.11760456  0.19114413     0.30800
H546        H  0.31153508  0.15140908  0.16162752     0.32500
H547        H  0.34392930  0.26092979  0.15961379     0.31400
H548        H  0.17512291  0.15381476  0.07275916     0.35400
H549        H  0.26866382  0.19083243  0.02234196     0.28200
H550        H  0.18798257  0.25847862  0.25577940     0.32400
H551        H  0.31013246  0.29803319  0.18899632     0.35300
H552        H  0.22243570  0.11977164  0.18639875     0.27900
H553        H  0.23271396  0.18170226  0.02219864     0.40700
H554        H  0.14309767  0.30644530  0.09343342     0.30800
H555        H  0.11660556  0.22618226  0.11006490     0.38400
H556        H  0.33493371  0.22705815  0.15574429     0.30300
H557        H  0.22769089  0.32843048  0.11789058     0.30300
H558        H  0.21874660  0.27489364  0.24251240     0.30600
C559        C  0.94379500  0.90711466  0.18531325     0.02700
C560        C  0.94696179  0.93804829  0.19081385    -0.13400
C561        C  0.97698133  0.95259318  0.18970999     0.00200
C562        C  0.00339971  0.93587862  0.18391465    -0.12000
C563        C  0.00009791  0.90533999  0.17812618     0.02700
C564        C  0.97043304  0.89129464  0.17826322    -0.11400
H565        H  0.92645867  0.95051821  0.19632832     0.08300
H566        H  0.02658742  0.94662810  0.18410381     0.05800
H567        H  0.96824393  0.86745382  0.17445334     0.05700
C568        C  0.95437313  0.12155033  0.20852370     0.02700
C569        C  0.97997746  0.14063126  0.21598210    -0.13400
C570        C  0.01071962  0.13028802  0.21564706     0.00200
C571        C  0.01446752  0.09935880  0.21100118    -0.12000
C572        C  0.98814563  0.07973020  0.20760922     0.02700
C573        C  0.95837491  0.09114412  0.20567507    -0.11400
H574        H  0.97594769  0.16390014  0.22013403     0.08300
H575        H  0.03764790  0.09051940  0.20964398     0.05800
H576        H  0.93837944  0.07644397  0.20050620     0.05700
Zr577      Zr  0.22706934  0.77383020  0.24918153     2.17500
O578        O  0.26300788  0.73434771  0.23801629    -0.51800
O579        O  0.20558085  0.75694388  0.30046578    -0.75000
O580        O  0.27288693  0.77839344  0.28217884    -0.81700
O581        O  0.16567215  0.73859895  0.19941906    -0.83500
O582        O  0.27839395  0.82709497  0.29491855    -0.79100
O583        O  0.20309234  0.72641875  0.23418040    -0.90800
O584        O  0.16890434  0.79015786  0.31339349    -0.76700
O585        O  0.21576432  0.81657891  0.27918100    -0.86200
O586        O  0.17284820  0.78230952  0.24116281    -0.85900
O587        O  0.26134221  0.81354044  0.22860713    -0.72700
O588        O  0.22139592  0.78156086  0.19337881    -0.84800
Zr589      Zr  0.18952671  0.87439647  0.19702996     2.26400
Zr590      Zr  0.24875441  0.85645054  0.25831948     2.06300
Zr591      Zr  0.16756389  0.79165921  0.18597033     2.10000
Zr592      Zr  0.16192187  0.82466181  0.27122188     1.78800
O593        O  0.18100114  0.77998274  0.13187347    -0.93600
O594        O  0.16035775  0.85316011  0.31944923    -0.41400
O595        O  0.15595728  0.83403324  0.21668200    -0.78000
O596        O  0.19430966  0.86558711  0.25267481    -0.96700
O597        O  0.24365835  0.86591303  0.20338125    -0.90000
O598        O  0.20010591  0.83219935  0.16549408    -0.92900
C599        C  0.18497796  0.76746358  0.31916125     1.00900
C600        C  0.18006325  0.71963617  0.21627894     1.13800
C601        C  0.28604972  0.79982683  0.29739452     1.04600
O602        O  0.26196113  0.88014483  0.30776689    -0.95000
O603        O  0.23798969  0.90893231  0.26300996    -0.90800
O604        O  0.20252497  0.91989031  0.22578285    -0.83900
C605        C  0.22005958  0.92702496  0.24901289     1.11200
O606        O  0.28939175  0.78183243  0.16620786    -0.97000
Zr607      Zr  0.25403812  0.82259690  0.17359127     1.88900
O608        O  0.21432701  0.89107702  0.14804770    -0.73600
O609        O  0.29842924  0.87551569  0.23588940    -0.52900
O610        O  0.30805110  0.84213880  0.17500793    -0.97600
O611        O  0.24996017  0.80224077  0.12084833    -0.54800
O612        O  0.25652284  0.86385343  0.13657609    -0.74200
C613        C  0.23824162  0.88514316  0.13117962     0.98200
O614        O  0.16651328  0.92145809  0.18210511    -0.63000
O615        O  0.11917698  0.76678393  0.16835301    -0.57800
O616        O  0.13570357  0.86894655  0.17978434    -0.94500
O617        O  0.12184274  0.82007362  0.17323974    -0.92900
O618        O  0.11430424  0.79325514  0.27664922    -0.93200
O619        O  0.11827977  0.85785574  0.27315705    -0.92000
C620        C  0.11588842  0.84787814  0.17312351     1.17000
H621        H  0.15955498  0.76579955  0.24881827     0.33000
H622        H  0.18734554  0.88178876  0.26523373     0.43800
H623        H  0.19545666  0.83600679  0.14373135     0.37300
H624        H  0.28298501  0.80887449  0.23163429     0.33800
H625        H  0.14388149  0.84281077  0.33260367     0.25600
H626        H  0.30682520  0.88971937  0.25155341     0.31600
H627        H  0.31420027  0.84568307  0.15272054     0.37500
H628        H  0.10718965  0.79585914  0.29863131     0.31900
H629        H  0.12567625  0.74968820  0.15571420     0.30800
H630        H  0.16396984  0.78827006  0.11927938     0.32500
H631        H  0.26907712  0.80998802  0.10957597     0.31400
H632        H  0.12475529  0.87475409  0.25900745     0.35400
H633        H  0.16068934  0.91949618  0.15976061     0.28200
H634        H  0.26595875  0.72396330  0.25837647     0.32400
H635        H  0.30459092  0.78868751  0.14963700     0.35300
H636        H  0.10923276  0.75771201  0.18753449     0.27900
H637        H  0.14631744  0.92215922  0.19369406     0.40700
H638        H  0.24235345  0.87835577  0.32044623     0.30800
H639        H  0.18020245  0.84894019  0.33012027     0.38400
H640        H  0.23275180  0.81276569  0.11071252     0.30300
H641        H  0.31244053  0.85850735  0.23676283     0.30300
H642        H  0.28344473  0.74473563  0.23324134     0.30600
C643        C  0.48116718  0.43832469  0.68823774     0.02700
C644        C  0.51203851  0.42895920  0.68586457    -0.13400
C645        C  0.51806635  0.39850225  0.68686570     0.00200
C646        C  0.49294747  0.37756563  0.68971616    -0.12000
C647        C  0.46204614  0.38691211  0.69111727     0.02700
C648        C  0.45614127  0.41729647  0.69034024    -0.11400
H649        H  0.53136749  0.44535009  0.68457310     0.08300
H650        H  0.49744004  0.35397483  0.69100342     0.05800
H651        H  0.43231131  0.42454867  0.69247970     0.05700
C652        C  0.45245344  0.61326707  0.70780738     0.02700
C653        C  0.44772516  0.58221737  0.70584634    -0.13400
C654        C  0.47345891  0.56377585  0.70699413     0.00200
C655        C  0.50377583  0.57645834  0.71038545    -0.12000
C656        C  0.50863189  0.60745498  0.71187644     0.02700
C657        C  0.48283717  0.62570484  0.71124742    -0.11400
H658        H  0.42441861  0.57261026  0.70208461     0.08300
H659        H  0.52378398  0.56234204  0.70964791     0.05800
H660        H  0.48662531  0.64974140  0.71075782     0.05700
C661        C  0.79082728  0.44223371  0.31524923     0.02700
C662        C  0.79485441  0.44070490  0.34764254    -0.13400
C663        C  0.79427450  0.46669279  0.36514477     0.00200
C664        C  0.78905450  0.49410338  0.35054437    -0.12000
C665        C  0.78546117  0.49570594  0.31798002     0.02700
C666        C  0.78621033  0.46969215  0.30032586    -0.11400
H667        H  0.79906115  0.41951930  0.35907298     0.08300
H668        H  0.78913532  0.51426735  0.36427654     0.05800
H669        H  0.78427934  0.47093310  0.27497157     0.05700
C670        C  0.80402991  0.45246596  0.55008673     0.02700
C671        C  0.80774441  0.44610174  0.51833814    -0.13400
C672        C  0.81541417  0.46914947  0.49696680     0.00200
C673        C  0.82218952  0.49800736  0.50767875    -0.12000
C674        C  0.81679779  0.50489797  0.53924854     0.02700
C675        C  0.80761090  0.48181439  0.56036386    -0.11400
H676        H  0.80260653  0.42372846  0.51003914     0.08300
H677        H  0.82883778  0.51557842  0.49089250     0.05800
H678        H  0.80216025  0.48670062  0.58463912     0.05700
Zr679      Zr  0.66614632  0.71296829  0.62871334     2.17500
O680        O  0.61175340  0.71955623  0.61397624    -0.51800
O681        O  0.65294503  0.75957053  0.65260715    -0.75000
O682        O  0.62900405  0.68419173  0.66197216    -0.81700
O683        O  0.69491080  0.73964978  0.54752377    -0.83500
O684        O  0.65463913  0.65635136  0.69766542    -0.79100
O685        O  0.65093292  0.72441412  0.57476446    -0.90800
O686        O  0.69499389  0.78124555  0.67665130    -0.76700
O687        O  0.69411574  0.71569532  0.67677032    -0.86200
O688        O  0.70895587  0.74795229  0.61993607    -0.85900
O689        O  0.68180368  0.66269768  0.63872727    -0.72700
O690        O  0.69586240  0.69298435  0.58654612    -0.84800
Zr691      Zr  0.78496127  0.67988155  0.63567624     2.26400
Zr692      Zr  0.71060039  0.66612099  0.68647022     2.06300
Zr693      Zr  0.73927107  0.72739750  0.57878650     2.10000
Zr694      Zr  0.73803187  0.74930667  0.66732511     1.78800
O695        O  0.74801730  0.71432125  0.52413013    -0.93600
O696        O  0.73528665  0.75529769  0.72407515    -0.41400
O697        O  0.76931210  0.73003735  0.62577377    -0.78000
O698        O  0.75475064  0.70018529  0.67806281    -0.96700
O699        O  0.74129992  0.64581568  0.64505255    -0.90000
O700        O  0.75633191  0.67799515  0.58793011    -0.92900
C701        C  0.66629272  0.78038852  0.66846762     1.00900
C702        C  0.66525995  0.73480304  0.54996775     1.13800
C703        C  0.62951231  0.66498048  0.68454755     1.04600
O704        O  0.70348121  0.68613917  0.73877634    -0.95000
O705        O  0.75567976  0.64699622  0.71308123    -0.90800
O706        O  0.80056982  0.65755284  0.68536959    -0.83900
C707        C  0.78565163  0.64720865  0.70980052     1.11200
O708        O  0.66204550  0.62323534  0.58143126    -0.97000
Zr709      Zr  0.71292916  0.64402703  0.59743082     1.88900
O710        O  0.80061533  0.63413925  0.60988328    -0.73600
O711        O  0.70216179  0.61457628  0.70432666    -0.52900
O712        O  0.70304341  0.59304128  0.61660519    -0.97600
O713        O  0.70808232  0.64162823  0.54055875    -0.54800
O714        O  0.75743640  0.61534392  0.58529254    -0.74200
C715        C  0.78653550  0.61520272  0.59199078     0.98200
O716        O  0.83750779  0.68798985  0.65651775    -0.63000
O717        O  0.74881932  0.78013511  0.56606858    -0.57800
O718        O  0.82168417  0.70507646  0.59822822    -0.94500
O719        O  0.79373157  0.73465149  0.56608824    -0.92900
O720        O  0.75740127  0.79755206  0.64655988    -0.93200
O721        O  0.78734411  0.76527324  0.69114726    -0.92000
C722        C  0.81931137  0.72406905  0.57556423     1.17000
H723        H  0.70179727  0.76731051  0.61391213     0.33000
H724        H  0.76706446  0.70173888  0.69683618     0.43800
H725        H  0.76921642  0.67196900  0.57051604     0.37300
H726        H  0.66451995  0.64833711  0.64044536     0.33800
H727        H  0.73246643  0.77686254  0.72712727     0.25600
H728        H  0.69221521  0.61586813  0.72537261     0.31600
H729        H  0.70883129  0.59339015  0.63903228     0.37500
H730        H  0.73913162  0.80638587  0.63643380     0.31900
H731        H  0.72867658  0.78967082  0.56997388     0.30800
H732        H  0.74937034  0.73365964  0.51259831     0.32500
H733        H  0.71403816  0.62121720  0.53516112     0.31400
H734        H  0.80354302  0.75492972  0.67910364     0.35400
H735        H  0.85187739  0.67883080  0.64133783     0.28200
H736        H  0.60093255  0.72639724  0.63311364     0.32400
H737        H  0.66628196  0.60455722  0.57032187     0.35300
H738        H  0.76274972  0.78766070  0.58284250     0.27900
H739        H  0.84220616  0.70973267  0.65466772     0.40700
H740        H  0.68835783  0.67198427  0.74947562     0.30800
H741        H  0.71493019  0.74567157  0.73054077     0.38400
H742        H  0.72537130  0.65482444  0.53207939     0.30300
H743        H  0.68541423  0.60619877  0.69079065     0.30300
H744        H  0.60261487  0.69932577  0.61021490     0.30600
C745        C  0.79938547  0.55752496  0.53286052    -0.02300
C746        C  0.81650028  0.53630285  0.54965834     0.07400
C747        C  0.83026431  0.54455494  0.57848855    -0.02400
C748        C  0.82146918  0.57093954  0.59317450    -0.02400
C749        C  0.80397253  0.59166870  0.57637142     0.07500
C750        C  0.79702513  0.58621962  0.54469994    -0.02600
Br751      Br  0.78315174  0.61794265  0.51782341    -0.01100
Br752      Br  0.77351013  0.54705893  0.49737736    -0.01200
Br753      Br  0.83017940  0.57630668  0.63690019    -0.01200
Br754      Br  0.86058115  0.51967209  0.59804858    -0.01100
C755        C  0.83084709  0.46621845  0.40992503    -0.02300
C756        C  0.79993231  0.46529601  0.39880037     0.07400
C757        C  0.77428292  0.46315453  0.41969439    -0.02400
C758        C  0.77949991  0.46237517  0.45204852    -0.02400
C759        C  0.81045248  0.46475967  0.46335185     0.07500
C760        C  0.83611410  0.46619596  0.44233993    -0.02600
Br761      Br  0.87827131  0.46806243  0.45811861    -0.01100
Br762      Br  0.86582946  0.46833309  0.38080576    -0.01200
Br763      Br  0.74397531  0.45908171  0.48052160    -0.01200
Br764      Br  0.73206473  0.46221363  0.40377230    -0.01100
C765        C  0.55785813  0.63411160  0.73065487    -0.02300
C766        C  0.54035111  0.62100320  0.70623523     0.07400
C767        C  0.55237063  0.62196961  0.67531277    -0.02400
C768        C  0.58195503  0.63537860  0.66881944    -0.02400
C769        C  0.59920533  0.64956100  0.69290654     0.07500
C770        C  0.58699364  0.64902132  0.72388558    -0.02600
Br771      Br  0.60901892  0.67029372  0.75641229    -0.01100
Br772      Br  0.54192442  0.63125811  0.77317717    -0.01200
Br773      Br  0.59896597  0.63296394  0.62669683    -0.01200
Br774      Br  0.52774885  0.60573466  0.64131092    -0.01100
C775        C  0.47620623  0.48133045  0.72353222    -0.02300
C776        C  0.47546177  0.46999658  0.69289497     0.07400
C777        C  0.46987847  0.48888905  0.66713721    -0.02400
C778        C  0.46697411  0.51960764  0.67188728    -0.02400
C779        C  0.46972383  0.53129182  0.70242070     0.07500
C780        C  0.47304221  0.51190582  0.72831038    -0.02600
Br781      Br  0.47315182  0.52733651  0.77034246    -0.01100
Br782      Br  0.48246382  0.45499486  0.75890652    -0.01200
Br783      Br  0.46013575  0.54549414  0.63643947    -0.01200
Br784      Br  0.46722657  0.47265657  0.62545284    -0.01100
C785        C  0.04717268  0.89113511  0.14734495    -0.02300
C786        C  0.02787271  0.88740322  0.17428736     0.07400
C787        C  0.03517345  0.86656069  0.19786737    -0.02400
C788        C  0.06240013  0.85039824  0.19496308    -0.02400
C789        C  0.08343173  0.85653927  0.16974611     0.07500
C790        C  0.07543776  0.87629990  0.14549821    -0.02600
Br791      Br  0.10334253  0.88302934  0.11001605    -0.01100
Br792      Br  0.03470407  0.91620645  0.11296349    -0.01200
Br793      Br  0.07159984  0.82106482  0.22659881    -0.01200
Br794      Br  0.00935052  0.86174769  0.23541301    -0.01100
C795        C  0.98213594  0.02799011  0.22964903    -0.02300
C796        C  0.99055836  0.04715513  0.20413400     0.07400
C797        C  0.99536213  0.03520475  0.17415356    -0.02400
C798        C  0.99103840  0.00431734  0.16951686    -0.02400
C799        C  0.98150220  0.98517796  0.19480732     0.07500
C800        C  0.97817106  0.99704129  0.22512233    -0.02600
Br801      Br  0.96938753  0.97089408  0.26068911    -0.01100
Br802      Br  0.97468495  0.04450444  0.27057356    -0.01200
Br803      Br  0.99739489  0.98846637  0.12816565    -0.01200
Br804      Br  0.00585984  0.06150746  0.13902554    -0.01100
C805        C  0.09420970  0.15965700  0.23126403    -0.02300
C806        C  0.09615994  0.18622917  0.21326674     0.07400
C807        C  0.06867786  0.19711637  0.20031082    -0.02400
C808        C  0.04085395  0.17904997  0.20021841    -0.02400
C809        C  0.03878797  0.15174798  0.21787483     0.07500
C810        C  0.06512313  0.14406975  0.23587272    -0.02600
Br811      Br  0.06200816  0.11242599  0.26710024    -0.01100
Br812      Br  0.13198618  0.14164470  0.24492234    -0.01200
Br813      Br  0.00868990  0.19049182  0.17133881    -0.01200
Br814      Br  0.07100232  0.23541517  0.17876729    -0.01100
C815        C  0.18592852  0.99432214  0.28798303    -0.02300
C816        C  0.21336116  0.00909428  0.29859296     0.07400
C817        C  0.24290649  0.99844398  0.29049471    -0.02400
C818        C  0.24510213  0.97305490  0.27179777    -0.02400
C819        C  0.21767857  0.95709462  0.26255622     0.07500
C820        C  0.18795480  0.96815686  0.27031941    -0.02600
Br821      Br  0.14966363  0.94647954  0.25963742    -0.01100
Br822      Br  0.14555962  0.00925683  0.29918769    -0.01200
Br823      Br  0.28588020  0.96048086  0.25857803    -0.01200
Br824      Br  0.28041156  0.01724272  0.30717366    -0.01100
C825        C  0.20669528  0.16297297  0.29179484    -0.02300
C826        C  0.23351941  0.16488008  0.27177525     0.07400
C827        C  0.25921447  0.14731441  0.27904227    -0.02400
C828        C  0.25566323  0.12416351  0.30153462    -0.02400
C829        C  0.22624508  0.11796378  0.31597727     0.07500
C830        C  0.20249089  0.13860518  0.31286740    -0.02600
Br831      Br  0.16312036  0.13187329  0.33504879    -0.01100
Br832      Br  0.17520396  0.19269058  0.29046583    -0.01200
Br833      Br  0.29055047  0.10005879  0.31177750    -0.01200
Br834      Br  0.29920717  0.15492762  0.25821620    -0.01100
C835        C  0.23957632  0.03847979  0.42021262    -0.02300
C836        C  0.21087088  0.04622299  0.40711498     0.07400
C837        C  0.18336296  0.04505750  0.42579295    -0.02400
C838        C  0.18463330  0.03617830  0.45765340    -0.02400
C839        C  0.21335473  0.02824146  0.47065080     0.07500
C840        C  0.24080365  0.02937767  0.45181919    -0.02600
Br841      Br  0.28038393  0.01889601  0.46948708    -0.01100
Br842      Br  0.27742162  0.04085598  0.39483468    -0.01200
Br843      Br  0.14743016  0.03550075  0.48376202    -0.01200
Br844      Br  0.14425542  0.05603746  0.40768881    -0.01100
C845        C  0.40380800  0.33123477  0.72785097    -0.02300
C846        C  0.39704104  0.31309653  0.70171824     0.07400
C847        C  0.40745085  0.32238894  0.67139833    -0.02400
C848        C  0.42705044  0.34806944  0.66768341    -0.02400
C849        C  0.43622349  0.36440743  0.69415923     0.07500
C850        C  0.42339488  0.35694892  0.72397385    -0.02600
Br851      Br  0.43426674  0.38095231  0.75978100    -0.01100
Br852      Br  0.38893305  0.31977603  0.76953645    -0.01200
Br853      Br  0.44210347  0.36074693  0.62649297    -0.01200
Br854      Br  0.39491258  0.30010093  0.63488470    -0.01100
C855        C  0.24909058  0.11014448  0.60116809    -0.02300
C856        C  0.28214407  0.11342893  0.60221112     0.07400
C857        C  0.30074237  0.09277573  0.58651543    -0.02400
C858        C  0.28649052  0.06808976  0.57170306    -0.02400
C859        C  0.25362608  0.06492335  0.57083521     0.07500
C860        C  0.23495615  0.08621782  0.58495637    -0.02600
Br861      Br  0.18984951  0.08158157  0.58328458    -0.01100
Br862      Br  0.22269335  0.13645134  0.62411020    -0.01200
Br863      Br  0.31193799  0.03819366  0.55317846    -0.01200
Br864      Br  0.34583372  0.09849916  0.58471313    -0.01100
C865        C  0.22437691  0.92601014  0.05530001    -0.02300
C866        C  0.25160195  0.94490868  0.05285149     0.07400
C867        C  0.27606507  0.94161174  0.07453741    -0.02400
C868        C  0.27167356  0.92229440  0.10060528    -0.02400
C869        C  0.24431928  0.90388903  0.10314397     0.07500
C870        C  0.22147770  0.90471015  0.07968193    -0.02600
Br871      Br  0.18581943  0.87686156  0.08139235    -0.01100
Br872      Br  0.18926486  0.93090365  0.02782793    -0.01200
Br873      Br  0.30127078  0.92358163  0.13449800    -0.01200
Br874      Br  0.31546746  0.96375771  0.06874551    -0.01100
C875        C  0.22968275  0.06134181  0.06335601    -0.02300
C876        C  0.25296985  0.05445691  0.04126454     0.07400
C877        C  0.27871629  0.07446698  0.03550396    -0.02400
C878        C  0.28063583  0.10182685  0.05121757    -0.02400
C879        C  0.25780714  0.10831837  0.07404303     0.07500
C880        C  0.23256411  0.08779120  0.08030312    -0.02600
Br881      Br  0.20112315  0.09601670  0.11150080    -0.01100
Br882      Br  0.19323453  0.03486504  0.06978456    -0.01200
Br883      Br  0.31494179  0.12978933  0.04208407    -0.01200
Br884      Br  0.31208435  0.06365275  0.00741340    -0.01100
C885        C  0.27494072  0.01474557  0.76725208    -0.02300
C886        C  0.24243571  0.01093494  0.77224844     0.07400
C887        C  0.22195363  0.03080883  0.75832704    -0.02400
C888        C  0.23416011  0.05564816  0.74099649    -0.02400
C889        C  0.26691268  0.06182994  0.73971100     0.07500
C890        C  0.28732539  0.04078207  0.75241442    -0.02600
Br891      Br  0.33207154  0.04859620  0.75405927    -0.01100
Br892      Br  0.30265696  0.98473571  0.78208445    -0.01200
Br893      Br  0.20590378  0.08101882  0.71909775    -0.01200
Br894      Br  0.17733560  0.02437323  0.76402005    -0.01100
C895        C  0.20263411  0.97848831  0.90378510    -0.02300
C896        C  0.22848895  0.97922169  0.88287589     0.07400
C897        C  0.25875356  0.98697216  0.89388930    -0.02400
C898        C  0.26327543  0.99291987  0.92578697    -0.02400
C899        C  0.23765367  0.99116755  0.94678687     0.07500
C900        C  0.20719559  0.98476234  0.93573911    -0.02600
Br901      Br  0.17184506  0.98517299  0.96431949    -0.01100
Br902      Br  0.16111416  0.96909584  0.88857193    -0.01200
Br903      Br  0.30472304  0.00293136  0.94105369    -0.01200
Br904      Br  0.29451524  0.98827416  0.86579158    -0.01100
C905        C  0.38748237  0.23090368  0.02701076    -0.02300
C906        C  0.39316167  0.25812540  0.01061597     0.07400
C907        C  0.37568822  0.28311602  0.01842230    -0.02400
C908        C  0.35135301  0.28032008  0.04102389    -0.02400
C909        C  0.34534970  0.25290170  0.05680045     0.07500
C910        C  0.36412172  0.22856226  0.05053253    -0.02600
Br911      Br  0.35766437  0.19195181  0.07441483    -0.01100
Br912      Br  0.40992592  0.19611605  0.01593209    -0.01200
Br913      Br  0.32481961  0.31329339  0.04884480    -0.01200
Br914      Br  0.38503702  0.32119348  0.99817665    -0.01100
C915        C  0.42896811  0.24913666  0.87113040    -0.02300
C916        C  0.41429856  0.26616880  0.89459366     0.07400
C917        C  0.38637576  0.28072804  0.88655299    -0.02400
C918        C  0.37054122  0.27358876  0.85847546    -0.02400
C919        C  0.38472575  0.25535937  0.83631090     0.07500
C920        C  0.41568598  0.24682424  0.84128226    -0.02600
Br921      Br  0.44001136  0.23166003  0.80683263    -0.01100
Br922      Br  0.46405024  0.22426545  0.87946332    -0.01200
Br923      Br  0.32896394  0.28726200  0.85140606    -0.01200
Br924      Br  0.36981042  0.31101994  0.91304077    -0.01100
C925        C  0.52696690  0.27551367  0.96921857    -0.02300
C926        C  0.50263940  0.25342422  0.96857578     0.07400
C927        C  0.50982575  0.22304204  0.97158662    -0.02400
C928        C  0.54088915  0.21494194  0.97643310    -0.02400
C929        C  0.56525831  0.23692543  0.97582243     0.07500
C930        C  0.55826319  0.26725680  0.97255773    -0.02600
Br931      Br  0.59169064  0.29742290  0.97290471    -0.01100
Br932      Br  0.51740713  0.31694213  0.96479777    -0.01200
Br933      Br  0.55026076  0.17371885  0.98378715    -0.01200
Br934      Br  0.47775039  0.19220775  0.96605048    -0.01100
C935        C  0.71726103  0.20679964  0.05168049    -0.02300
C936        C  0.72000382  0.23504028  0.06609320     0.07400
C937        C  0.69293115  0.25210873  0.06831549    -0.02400
C938        C  0.66660507  0.24515671  0.04993124    -0.02400
C939        C  0.66585206  0.21907638  0.03164230     0.07500
C940        C  0.68953360  0.19839349  0.03585894    -0.02600
Br941      Br  0.68422208  0.15904847  0.01826167    -0.01100
Br942      Br  0.75143600  0.18012646  0.05084181    -0.01200
Br943      Br  0.63372449  0.27351328  0.04830369    -0.01200
Br944      Br  0.69103691  0.28457872  0.09748653    -0.01100
C945        C  0.91872191  0.13721735  0.16615605    -0.02300
C946        C  0.92467349  0.13400219  0.19851899     0.07400
C947        C  0.90327221  0.14431561  0.22075562    -0.02400
C948        C  0.87883209  0.16212563  0.21075685    -0.02400
C949        C  0.87543358  0.16869504  0.17847762     0.07500
C950        C  0.89332725  0.15365585  0.15623605    -0.02600
Br951      Br  0.88564480  0.15863469  0.11204198    -0.01100
Br952      Br  0.94726806  0.12214411  0.13521666    -0.01200
Br953      Br  0.85132573  0.17932116  0.24111083    -0.01200
Br954      Br  0.90859065  0.13508132  0.26465698    -0.01100
C955        C  0.82312129  0.40629747  0.28716868    -0.02300
C956        C  0.79337893  0.41548070  0.29639491     0.07400
C957        C  0.76609417  0.40060170  0.28562502    -0.02400
C958        C  0.76839580  0.37892856  0.26235555    -0.02400
C959        C  0.79817436  0.37191699  0.25066772     0.07500
C960        C  0.82551569  0.38416083  0.26459744    -0.02600
Br961      Br  0.86635093  0.37045203  0.25303538    -0.01100
Br962      Br  0.86053988  0.42481084  0.30447482    -0.01200
Br963      Br  0.73085218  0.36060907  0.24538019    -0.01200
Br964      Br  0.72582095  0.41039205  0.30273808    -0.01100
C965        C  0.14882341  0.24531948  0.96512838    -0.02300
C966        C  0.15054839  0.27304709  0.94913281     0.07400
C967        C  0.16827137  0.29714374  0.96160198    -0.02400
C968        C  0.18495901  0.29330340  0.98963374    -0.02400
C969        C  0.18410898  0.26523050  0.00497438     0.07500
C970        C  0.16586814  0.24129079  0.99264675    -0.02600
Br971      Br  0.16314093  0.20273039  0.01358291    -0.01100
Br972      Br  0.12342786  0.21232889  0.94925954    -0.01200
Br973      Br  0.21010206  0.32594204  0.00617011    -0.01200
Br974      Br  0.16897832  0.33540820  0.94041792    -0.01100
C975        C  0.18140565  0.27173416  0.81283846    -0.02300
C976        C  0.17272720  0.25405540  0.83939925     0.07400
C977        C  0.19006321  0.22882141  0.84686981    -0.02400
C978        C  0.21689725  0.22248291  0.82921145    -0.02400
C979        C  0.22489545  0.23931897  0.80184802     0.07500
C980        C  0.20680503  0.26381308  0.79349187    -0.02600
Br981      Br  0.21597025  0.28586999  0.75512874    -0.01100
Br982      Br  0.15915167  0.30728287  0.80371050    -0.01200
Br983      Br  0.24409608  0.19203472  0.84406521    -0.01200
Br984      Br  0.17677653  0.20231494  0.88105851    -0.01100
C985        C  0.90283983  0.20623740  0.01098786    -0.02300
C986        C  0.87727860  0.22447736  0.01627133     0.07400
C987        C  0.86356788  0.23901166  0.99070664    -0.02400
C988        C  0.87760157  0.23821165  0.96072536    -0.02400
C989        C  0.90269711  0.21918432  0.95508007     0.07500
C990        C  0.91419258  0.20206303  0.98024248    -0.02600
Br991      Br  0.94574022  0.17316866  0.97305475    -0.01100
Br992      Br  0.92401970  0.18893830  0.04598415    -0.01200
Br993      Br  0.86528639  0.26692352  0.92932364    -0.01200
Br994      Br  0.82722627  0.26257436  0.99744478    -0.01100
C995        C  0.00590203  0.26722957  0.88786438    -0.02300
C996        C  0.99676386  0.23682950  0.88490141     0.07400
C997        C  0.01971999  0.21582951  0.87929734    -0.02400
C998        C  0.05154580  0.22512426  0.87592949    -0.02400
C999        C  0.06081845  0.25555056  0.87894134     0.07500
C1000       C  0.03773325  0.27657688  0.88466187    -0.02600
Br1001     Br  0.04980571  0.31826287  0.88852958    -0.01100
Br1002     Br  0.97499763  0.29587949  0.89824457    -0.01200
Br1003     Br  0.08252934  0.19559334  0.86942293    -0.01200
Br1004     Br  0.00776255  0.17393775  0.87941480    -0.01100
C1005       C  0.75788869  0.56236713  0.27188497    -0.02300
C1006       C  0.78615287  0.57957773  0.26877887     0.07400
C1007       C  0.81364496  0.56965773  0.28322942    -0.02400
C1008       C  0.81311260  0.54234028  0.29950996    -0.02400
C1009       C  0.78510841  0.52490929  0.30196044     0.07500
C1010       C  0.75737125  0.53508216  0.28871006    -0.02600
Br1011     Br  0.71863936  0.51203064  0.29482725    -0.01100
Br1012     Br  0.72027204  0.57552171  0.25236726    -0.01200
Br1013     Br  0.85103594  0.52877275  0.31851742    -0.01200
Br1014     Br  0.85215208  0.59389180  0.28276778    -0.01100
C1015       C  0.90391159  0.88138248  0.22072406    -0.02300
C1016       C  0.91399446  0.88931047  0.18994085     0.07400
C1017       C  0.90076185  0.87397838  0.16426503    -0.02400
C1018       C  0.87991119  0.84918373  0.16950667    -0.02400
C1019       C  0.87161939  0.83996164  0.20047615     0.07500
C1020       C  0.88209712  0.85738797  0.22589870    -0.02600
Br1021     Br  0.86965488  0.84640270  0.26837480    -0.01100
Br1022     Br  0.92379452  0.89998865  0.25625581    -0.01200
Br1023     Br  0.86378054  0.82699897  0.13430735    -0.01200
Br1024     Br  0.91379830  0.88525714  0.12200564    -0.01100
C1025       C  0.11644784  0.34864563  0.23868768    -0.02300
C1026       C  0.11754619  0.37622405  0.22229508     0.07400
C1027       C  0.14003558  0.38121306  0.19800177    -0.02400
C1028       C  0.15882117  0.35785893  0.18848104    -0.02400
C1029       C  0.15279489  0.32859407  0.20041957     0.07500
C1030       C  0.13224828  0.32432024  0.22663787    -0.02600
Br1031     Br  0.12236656  0.28516839  0.24452248    -0.01100
Br1032     Br  0.09201589  0.34409014  0.27711946    -0.01200
Br1033     Br  0.19349656  0.36663272  0.15990117    -0.01200
Br1034     Br  0.14381490  0.41874972  0.17534498    -0.01100
C1035       C  0.96516995  0.37196520  0.17628318    -0.02300
C1036       C  0.94851623  0.35418733  0.19899488     0.07400
C1037       C  0.95999202  0.35183367  0.22982661    -0.02400
C1038       C  0.98744201  0.36812099  0.23809182    -0.02400
C1039       C  0.00351423  0.38643911  0.21551459     0.07500
C1040       C  0.99242467  0.38821450  0.18461198    -0.02600
Br1041     Br  0.01556098  0.41168415  0.15312349    -0.01100
Br1042     Br  0.95244261  0.37198466  0.13283359    -0.01200
Br1043     Br  0.00323878  0.36537374  0.28025066    -0.01200
Br1044     Br  0.93850057  0.32632183  0.26068061    -0.01100
C1045       C  0.13195548  0.65380785  0.18883754    -0.02300
C1046       C  0.12129797  0.64184841  0.21794234     0.07400
C1047       C  0.13652995  0.65028347  0.24576962    -0.02400
C1048       C  0.16028444  0.67296041  0.24473842    -0.02400
C1049       C  0.16706955  0.68851696  0.21616211     0.07500
C1050       C  0.15502530  0.67695350  0.18793143    -0.02600
Br1051     Br  0.17062804  0.69257889  0.14800610    -0.01100
Br1052     Br  0.11390226  0.63929740  0.15035127    -0.01200
Br1053     Br  0.18297455  0.68230052  0.28245876    -0.01200
Br1054     Br  0.12290666  0.63267306  0.28553724    -0.01100
C1055       C  0.95698531  0.64426077  0.23453052    -0.02300
C1056       C  0.94800314  0.65706210  0.20568618     0.07400
C1057       C  0.96778385  0.65547094  0.17914587    -0.02400
C1058       C  0.99604725  0.64044051  0.18128131    -0.02400
C1059       C  0.00565457  0.62903264  0.21053521     0.07500
C1060       C  0.98629497  0.63147071  0.23724839    -0.02600
Br1061     Br  0.00055109  0.61830795  0.27788808    -0.01100
Br1062     Br  0.92932603  0.64387054  0.27054993    -0.01200
Br1063     Br  0.02071432  0.63407356  0.14396266    -0.01200
Br1064     Br  0.95557439  0.67312965  0.13981577    -0.01100
C1065       C  0.06820118  0.52527360  0.25602117    -0.02300
C1066       C  0.07063026  0.54015235  0.22667164     0.07400
C1067       C  0.07481917  0.52389351  0.19905530    -0.02400
C1068       C  0.07507605  0.49264753  0.20053444    -0.02400
C1069       C  0.07135554  0.47755872  0.22971679     0.07500
C1070       C  0.06835128  0.49390367  0.25751751    -0.02600
Br1071     Br  0.06370166  0.47314065  0.29735865    -0.01100
Br1072     Br  0.06459194  0.54794403  0.29392828    -0.01200
Br1073     Br  0.07937550  0.47056947  0.16232418    -0.01200
Br1074     Br  0.07979967  0.54466043  0.15912336    -0.01100
C1075       C  0.21997015  0.92382200  0.60852055    -0.02300
C1076       C  0.23612772  0.90203083  0.59205811     0.07400
C1077       C  0.24222988  0.90639132  0.55960777    -0.02400
C1078       C  0.23805709  0.93429556  0.54525889    -0.02400
C1079       C  0.22304526  0.95684060  0.56194660     0.07500
C1080       C  0.21201001  0.95048168  0.59299915    -0.02600
Br1081     Br  0.18682847  0.97865537  0.61478295    -0.01100
Br1082     Br  0.21164593  0.91884785  0.65286775    -0.01200
Br1083     Br  0.25785917  0.94221118  0.50475974    -0.01200
Br1084     Br  0.25757900  0.87412338  0.53484376    -0.01100
C1085       C  0.39093802  0.67062732  0.71930955    -0.02300
C1086       C  0.38549019  0.67914677  0.68785882     0.07400
C1087       C  0.39937061  0.66355693  0.66313649    -0.02400
C1088       C  0.42050079  0.64123859  0.66979192    -0.02400
C1089       C  0.42681681  0.63342463  0.70117882     0.07500
C1090       C  0.41127458  0.64745817  0.72591029    -0.02600
Br1091     Br  0.41870599  0.63540475  0.76874519    -0.01100
Br1092     Br  0.37261366  0.69209986  0.75339175    -0.01200
Br1093     Br  0.44225157  0.62275287  0.63575894    -0.01200
Br1094     Br  0.38911271  0.67241956  0.62000406    -0.01100
C1095       C  0.25336120  0.86157848  0.78457418    -0.02300
C1096       C  0.23825631  0.85888382  0.75525882     0.07400
C1097       C  0.20999043  0.87400460  0.75106539    -0.02400
C1098       C  0.20146715  0.89566311  0.77286292    -0.02400
C1099       C  0.22228382  0.90418714  0.79675415     0.07500
C1100       C  0.24716946  0.88570967  0.80404770    -0.02600
Br1101     Br  0.27542518  0.89506760  0.83785080    -0.01100
Br1102     Br  0.28160546  0.83179275  0.79877775    -0.01200
Br1103     Br  0.16232337  0.91548669  0.76937073    -0.01200
Br1104     Br  0.18312348  0.86715080  0.71565835    -0.01100
C1105       C  0.66419761  0.20887284  0.85910746    -0.02300
C1106       C  0.69146256  0.22719674  0.85489932     0.07400
C1107       C  0.70660906  0.23921707  0.88124613    -0.02400
C1108       C  0.69196653  0.23717962  0.91099211    -0.02400
C1109       C  0.66376162  0.21970052  0.91521812     0.07500
C1110       C  0.65146175  0.20368520  0.88945568    -0.02600
Br1111     Br  0.61692383  0.17494415  0.89539415    -0.01100
Br1112     Br  0.64224964  0.19369653  0.82318097    -0.01200
Br1113     Br  0.70880781  0.26210480  0.94395657    -0.01200
Br1114     Br  0.74617082  0.26120470  0.87551842    -0.01100
C1115       C  0.59181761  0.36059385  0.66108043    -0.02300
C1116       C  0.61124969  0.36543804  0.68723337     0.07400
C1117       C  0.60058682  0.38264834  0.71245501    -0.02400
C1118       C  0.57032434  0.39385160  0.71210463    -0.02400
C1119       C  0.55063043  0.38836606  0.68632559     0.07500
C1120       C  0.56163304  0.37215948  0.66058100    -0.02600
Br1121     Br  0.53533547  0.36612918  0.62447693    -0.01100
Br1122     Br  0.60675934  0.33874961  0.62560646    -0.01200
Br1123     Br  0.55524177  0.41496884  0.74809939    -0.01200
Br1124     Br  0.62638594  0.38922154  0.74886379    -0.01100
C1125       C  0.75237101  0.40395877  0.60368298    -0.02300
C1126       C  0.77430299  0.38414837  0.61597756     0.07400
C1127       C  0.80591822  0.38642188  0.60548446    -0.02400
C1128       C  0.81549838  0.40873282  0.58356302    -0.02400
C1129       C  0.79371330  0.42873030  0.57221535     0.07500
C1130       C  0.76222710  0.42641151  0.58215978    -0.02600
Br1131     Br  0.73266573  0.45442773  0.56663530    -0.01100
Br1132     Br  0.70839671  0.40026428  0.61529894    -0.01200
Br1133     Br  0.85890826  0.41334361  0.57029095    -0.01200
Br1134     Br  0.83701748  0.36081318  0.62232128    -0.01100
C1135       C  0.86240511  0.20477767  0.83605139    -0.02300
C1136       C  0.88931074  0.22374093  0.84003865     0.07400
C1137       C  0.89184985  0.25077833  0.82253374    -0.02400
C1138       C  0.86791297  0.25852993  0.80201126    -0.02400
C1139       C  0.83866702  0.24243656  0.80258660     0.07500
C1140       C  0.83636417  0.21490715  0.81936090    -0.02600
Br1141     Br  0.79723503  0.19193879  0.82270379    -0.01100
Br1142     Br  0.86113136  0.16482075  0.85360972    -0.01200
Br1143     Br  0.87665580  0.29088835  0.77242852    -0.01200
Br1144     Br  0.92565431  0.28001680  0.82882776    -0.01100
C1145       C  0.78258507  0.43420361  0.07300781    -0.02300
C1146       C  0.81080453  0.42055963  0.08053894     0.07400
C1147       C  0.83976571  0.43537766  0.07238444    -0.02400
C1148       C  0.84042214  0.46406116  0.05854124    -0.02400
C1149       C  0.81227768  0.47742423  0.05078738     0.07500
C1150       C  0.78337677  0.46230462  0.05763674    -0.02600
Br1151     Br  0.74490219  0.48010017  0.04551610    -0.01100
Br1152     Br  0.74283125  0.41512212  0.08476148    -0.01200
Br1153     Br  0.87994234  0.48546021  0.05062431    -0.01200
Br1154     Br  0.87882965  0.41574167  0.07759644    -0.01100
C1155       C  0.83012302  0.63085902  0.08484635    -0.02300
C1156       C  0.80327137  0.63268582  0.10407206     0.07400
C1157       C  0.77702193  0.61340469  0.09941046    -0.02400
C1158       C  0.77810219  0.59153511  0.07614857    -0.02400
C1159       C  0.80611768  0.58777153  0.05899074     0.07500
C1160       C  0.83191019  0.60797289  0.06283774    -0.02600
Br1161     Br  0.87078844  0.60279042  0.04035267    -0.01100
Br1162     Br  0.86496120  0.65910820  0.08983385    -0.01200
Br1163     Br  0.74140268  0.56650956  0.06801512    -0.01200
Br1164     Br  0.74084442  0.61516898  0.12681479    -0.01100
C1165       C  0.83832118  0.59610274  0.75437318    -0.02300
C1166       C  0.82024984  0.59225717  0.78222433     0.07400
C1167       C  0.79681501  0.61252921  0.78909275    -0.02400
C1168       C  0.78946610  0.63429131  0.76676733    -0.02400
C1169       C  0.80313793  0.63411619  0.73639232     0.07500
C1170       C  0.83025969  0.61756245  0.73169241    -0.02600
Br1171     Br  0.85748974  0.62479797  0.69574946    -0.01100
Br1172     Br  0.87315806  0.57090078  0.74673586    -0.01200
Br1173     Br  0.76173940  0.66533520  0.77853741    -0.01200
Br1174     Br  0.77159259  0.60867534  0.82703267    -0.01100
C1175       C  0.77119551  0.47443111  0.79478328    -0.02300
C1176       C  0.80327293  0.48297562  0.79464129     0.07400
C1177       C  0.82534074  0.46418814  0.78151627    -0.02400
C1178       C  0.81543020  0.43658861  0.76898821    -0.02400
C1179       C  0.78334844  0.42748179  0.77003955     0.07500
C1180       C  0.76131704  0.44640865  0.78340044    -0.02600
Br1181     Br  0.71791936  0.43326510  0.78863334    -0.01100
Br1182     Br  0.74060737  0.50148823  0.80972339    -0.01200
Br1183     Br  0.84590011  0.41188675  0.74957453    -0.01200
Br1184     Br  0.86909978  0.47674039  0.78031527    -0.01100
C1185       C  0.85247819  0.54915435  0.90610571    -0.02300
C1186       C  0.82523829  0.54447121  0.88819104     0.07400
C1187       C  0.79578417  0.54101057  0.90342152    -0.02400
C1188       C  0.79380251  0.53897732  0.93625654    -0.02400
C1189       C  0.82112041  0.54190183  0.95416698     0.07500
C1190       C  0.85034880  0.54812645  0.93920351    -0.02600
Br1191     Br  0.88722973  0.55501014  0.96412969    -0.01100
Br1192     Br  0.89242705  0.55679181  0.88536037    -0.01200
Br1193     Br  0.75356462  0.53198765  0.95682561    -0.01200
Br1194     Br  0.75783512  0.54044959  0.87943576    -0.01100
C1195       C  0.36278345  0.80761676  0.34188546    -0.02300
C1196       C  0.36304034  0.78021721  0.35826759     0.07400
C1197       C  0.33802413  0.75911006  0.35497534    -0.02400
C1198       C  0.31258654  0.76545728  0.33555080    -0.02400
C1199       C  0.31235876  0.79295536  0.31862967     0.07500
C1200       C  0.33798188  0.81384602  0.32181101    -0.02600
Br1201     Br  0.34103437  0.85096678  0.29814948    -0.01100
Br1202     Br  0.39592747  0.83755421  0.34810290    -0.01200
Br1203     Br  0.27784939  0.73646074  0.33392627    -0.01200
Br1204     Br  0.33885581  0.72114779  0.37686554    -0.01100
C1205       C  0.39197001  0.73934629  0.48073962    -0.02300
C1206       C  0.40131610  0.76728453  0.46765354     0.07400
C1207       C  0.40645196  0.79200612  0.48714270    -0.02400
C1208       C  0.39889629  0.78952699  0.51930649    -0.02400
C1209       C  0.38618702  0.76230311  0.53180448     0.07500
C1210       C  0.38428024  0.73687451  0.51284395    -0.02600
Br1211     Br  0.37162685  0.69869685  0.53114316    -0.01100
Br1212     Br  0.39039125  0.70453152  0.45463991    -0.01200
Br1213     Br  0.40439466  0.82389992  0.54564280     0.03600
Br1214     Br  0.42335067  0.82925838  0.46958626    -0.01100
C1215       C  0.62210015  0.72011118  0.47464785    -0.02300
C1216       C  0.62523218  0.74840502  0.45995726     0.07400
C1217       C  0.63866942  0.77272732  0.47611775    -0.02400
C1218       C  0.64975053  0.76868697  0.50669683    -0.02400
C1219       C  0.64732281  0.74029102  0.52131888     0.07500
C1220       C  0.63287042  0.71607964  0.50548799    -0.02600
Br1221     Br  0.63047075  0.67683107  0.52476712    -0.01100
Br1222     Br  0.60550458  0.68652169  0.45145379    -0.01200
Br1223     Br  0.66924794  0.80199570  0.52811812    -0.01200
Br1224     Br  0.64331047  0.81132020  0.45561033    -0.01100
C1225       C  0.67732204  0.77948818  0.34302957    -0.02300
C1226       C  0.65364252  0.75692813  0.34649260     0.07400
C1227       C  0.65280445  0.73264131  0.32611740    -0.02400
C1228       C  0.67603561  0.73042420  0.30277220    -0.02400
C1229       C  0.70204382  0.75136847  0.30119932     0.07500
C1230       C  0.70125363  0.77704400  0.32019057    -0.02600
Br1231     Br  0.73208017  0.80938881  0.31558671    -0.01100
Br1232     Br  0.67738659  0.81333665  0.37053001    -0.01200
Br1233     Br  0.67033570  0.69898337  0.27238009    -0.01200
Br1234     Br  0.62117827  0.70087803  0.33198701    -0.01100
C1235       C  0.49080250  0.74160775  0.37712300    -0.02300
C1236       C  0.47727315  0.76947244  0.38022889     0.07400
C1237       C  0.49641809  0.79570772  0.38158442    -0.02400
C1238       C  0.52916886  0.79383580  0.38196397    -0.02400
C1239       C  0.54256343  0.76569593  0.38161543     0.07500
C1240       C  0.52347650  0.73967375  0.37812208    -0.02600
Br1241     Br  0.54200484  0.70119797  0.37736155    -0.01100
Br1242     Br  0.46427666  0.70592839  0.37455759    -0.01200
Br1243     Br  0.55560610  0.82946577  0.38529660    -0.01200
Br1244     Br  0.47756392  0.83380845  0.38596334    -0.01100
C1245       C  0.13845028  0.73423379  0.38653078    -0.02300
C1246       C  0.15113492  0.75164721  0.41099716     0.07400
C1247       C  0.17981261  0.76804840  0.40583863    -0.02400
C1248       C  0.19420518  0.76849850  0.37591185    -0.02400
C1249       C  0.17907528  0.75445696  0.35056614     0.07500
C1250       C  0.15123401  0.73713576  0.35603283    -0.02600
Br1251     Br  0.12707290  0.72231509  0.32117779    -0.01100
Br1252     Br  0.10245276  0.70758409  0.39425326    -0.01200
Br1253     Br  0.23170346  0.79317161  0.36814888    -0.01200
Br1254     Br  0.19739808  0.79376523  0.43775040    -0.01100
C1255       C  0.15236645  0.79198963  0.53775975    -0.02300
C1256       C  0.14494076  0.76316123  0.52656536     0.07400
C1257       C  0.15679230  0.73800721  0.54171791    -0.02400
C1258       C  0.17892779  0.74187462  0.56559084    -0.02400
C1259       C  0.18735117  0.77082345  0.57583342     0.07500
C1260       C  0.17215663  0.79561651  0.56354166    -0.02600
Br1261     Br  0.18023543  0.83500632  0.58001342    -0.01100
Br1262     Br  0.13922815  0.82697298  0.51532134    -0.01200
Br1263     Br  0.19845812  0.70766104  0.58360360    -0.01200
Br1264     Br  0.14326701  0.69848652  0.52913498    -0.01100
C1265       C  0.85833205  0.71686156  0.53328251    -0.02300
C1266       C  0.84727488  0.73459287  0.55766908     0.07400
C1267       C  0.85668184  0.76496448  0.55889356    -0.02400
C1268       C  0.87525670  0.77808036  0.53453635    -0.02400
C1269       C  0.88403335  0.76092212  0.50863320     0.07500
C1270       C  0.87606227  0.73011041  0.50833699    -0.02600
Br1271     Br  0.88782103  0.70631660  0.47313482    -0.01100
Br1272     Br  0.84753739  0.67472907  0.53344899    -0.01200
Br1273     Br  0.88696274  0.82001996  0.53558511    -0.01200
Br1274     Br  0.84294371  0.78865724  0.59354713    -0.01100
C1275       C  0.90777267  0.79294544  0.37067913    -0.02300
C1276       C  0.89095748  0.80170609  0.39784292     0.07400
C1277       C  0.85951061  0.81023941  0.39420191    -0.02400
C1278       C  0.84354684  0.80397002  0.36599506    -0.02400
C1279       C  0.86004702  0.79329808  0.33999069     0.07500
C1280       C  0.89288066  0.79200066  0.34153716    -0.02600
Br1281     Br  0.91700199  0.78515318  0.30376237    -0.01100
Br1282     Br  0.94895049  0.77632797  0.37242047    -0.01200
Br1283     Br  0.79895780  0.80720240  0.36405136    -0.01200
Br1284     Br  0.83798107  0.83000965  0.42762711    -0.01100
C1285       C  0.02858984  0.75507088  0.46009208    -0.02300
C1286       C  0.05061164  0.77899642  0.46214045     0.07400
C1287       C  0.04065384  0.80857354  0.46168337    -0.02400
C1288       C  0.00840641  0.81412492  0.46026226    -0.02400
C1289       C  0.98624789  0.79000423  0.45936963     0.07500
C1290       C  0.99669960  0.76058383  0.45739764    -0.02600
Br1291     Br  0.96782481  0.72772941  0.44840430    -0.01100
Br1292     Br  0.04211150  0.71451336  0.46227582    -0.01200
Br1293     Br  0.99476702  0.85453556  0.45911705    -0.01200
Br1294     Br  0.07116407  0.84125216  0.46361155    -0.01100
C1295       C  0.49004055  0.10046413  0.70862180    -0.02300
C1296       C  0.51082691  0.10346543  0.68273203     0.07400
C1297       C  0.50075304  0.11628977  0.65433428    -0.02400
C1298       C  0.47029097  0.12705641  0.65223926    -0.02400
C1299       C  0.44987568  0.12478410  0.67846386     0.07500
C1300       C  0.45950433  0.11064319  0.70631391    -0.02600
Br1301     Br  0.43142228  0.10647933  0.74212679    -0.01100
Br1302     Br  0.50403413  0.08419578  0.74805040    -0.01200
Br1303     Br  0.45606153  0.14406440  0.61336297    -0.01200
Br1304     Br  0.52868558  0.11907282  0.61841654    -0.01100
C1305       C  0.66235806  0.15376235  0.72827881    -0.02300
C1306       C  0.66644820  0.17580971  0.70426545     0.07400
C1307       C  0.65332140  0.17020466  0.67449836    -0.02400
C1308       C  0.63286670  0.14523391  0.67022706    -0.02400
C1309       C  0.62530893  0.12558798  0.69559029     0.07500
C1310       C  0.64115038  0.12923304  0.72424895    -0.02600
Br1311     Br  0.63218218  0.10198856  0.75897610    -0.01100
Br1312     Br  0.68525650  0.15662337  0.76697617    -0.01200
Br1313     Br  0.61513277  0.13781762  0.62946320    -0.01200
Br1314     Br  0.66478956  0.19567965  0.63890166    -0.01100
C1315       C  0.61518695  0.84644123  0.66061238    -0.02300
C1316       C  0.60950645  0.85300814  0.69238714     0.07400
C1317       C  0.62316160  0.83623488  0.71636901    -0.02400
C1318       C  0.64148030  0.81204698  0.70866272    -0.02400
C1319       C  0.64735628  0.80562990  0.67689647     0.07500
C1320       C  0.63453432  0.82305846  0.65288030    -0.02600
Br1321     Br  0.64308361  0.81459031  0.60933511    -0.01100
Br1322     Br  0.59496597  0.86809610  0.62766450    -0.01200
Br1323     Br  0.65558258  0.78591462  0.74145632    -0.01200
Br1324     Br  0.61567670  0.84597882  0.75975041    -0.01100
C1325       C  0.45529705  0.85259799  0.67545275    -0.02300
C1326       C  0.44016820  0.83671360  0.70068037     0.07400
C1327       C  0.45460708  0.83586175  0.73025124    -0.02400
C1328       C  0.48411630  0.85059320  0.73438442    -0.02400
C1329       C  0.49797921  0.86810668  0.70968799     0.07500
C1330       C  0.48338645  0.86903312  0.68027761    -0.02600
Br1331     Br  0.50314079  0.89128109  0.64562516    -0.01100
Br1332     Br  0.43863849  0.85139177  0.63349133    -0.01200
Br1333     Br  0.50645735  0.84533142  0.77300071    -0.01200
Br1334     Br  0.43507945  0.81269094  0.76414017    -0.01100
C1335       C  0.57485811  0.97490575  0.72948664    -0.02300
C1336       C  0.57306492  0.95674398  0.70278667     0.07400
C1337       C  0.57696593  0.96985583  0.67255960    -0.02400
C1338       C  0.58122768  0.00099210  0.66905132    -0.02400
C1339       C  0.58111428  0.01924264  0.69565453     0.07500
C1340       C  0.57865622  0.00611020  0.72591186    -0.02600
Br1341     Br  0.57913920  0.03109447  0.76237724    -0.01100
Br1342     Br  0.57192954  0.95698871  0.77090526    -0.01200
Br1343     Br  0.58646462  0.01892467  0.62775480    -0.01200
Br1344     Br  0.57480586  0.94546238  0.63572278    -0.01100
loop_ 
_geom_bond_atom_site_label_1 
_geom_bond_atom_site_label_2 
_geom_bond_distance 
_geom_bond_site_symmetry_2 
_ccdc_geom_bond_type 
C1            C2   1.400       .  A
C1            C6   1.395       .  A
C1         C1316   1.468       .  S
C2            C3   1.403       .  A
C2            H7   1.084       .  S
C3            C4   1.411       .  A
C3         C1336   1.484       .  S
C4            C5   1.409       .  A
C4            H8   1.084       .  S
C5            C6   1.395       .  A
C5         C1329   1.480       .  S
C6            H9   1.085       .  S
C10          C11   1.406       .  A
C10          C15   1.410       .  A
C10        C1309   1.488       .  S
C11          C12   1.400       .  A
C11          H16   1.084       .  S
C12          C13   1.397       .  A
C12        C1296   1.478       .  S
C13          C14   1.400       .  A
C13          H17   1.085       .  S
C14          C15   1.408       .  A
C14        C1339   1.480       .  S
C15          H18   1.083       .  S
C19          C20   1.405       .  A
C19          C24   1.397       .  A
C19        C1269   1.479       .  S
C20          C21   1.413       .  A
C20          H25   1.083       .  S
C21          C22   1.409       .  A
C21        C1276   1.501       .  S
C22          C23   1.401       .  A
C22          H26   1.082       .  S
C23          C24   1.400       .  A
C23        C1289   1.483       .  S
C24          H27   1.084       .  S
C28          C29   1.399       .  A
C28          C33   1.402       .  A
C28        C1256   1.471       .  S
C29          C30   1.397       .  A
C29          H34   1.084       .  S
C30          C31   1.401       .  A
C30        C1286   1.473       .  S
C31          C32   1.407       .  A
C31          H35   1.084       .  S
C32          C33   1.401       .  A
C32        C1246   1.487       .  S
C33          H36   1.084       .  S
C37          C38   1.403       .  A
C37          C42   1.401       .  A
C37        C1226   1.475       .  S
C38          C39   1.400       .  A
C38          H43   1.084       .  S
C39          C40   1.401       .  A
C39        C1239   1.470       .  S
C40          C41   1.398       .  A
C40          H44   1.084       .  S
C41          C42   1.400       .  A
C41        C1216   1.472       .  S
C42          H45   1.084       .  S
C46          C47   1.408       .  A
C46          C51   1.404       .  A
C46        C1196   1.479       .  S
C47          C48   1.401       .  A
C47          H52   1.084       .  S
C48          C49   1.395       .  A
C48        C1236   1.467       .  S
C49          C50   1.390       .  A
C49          H53   1.085       .  S
C50          C51   1.400       .  A
C50        C1206   1.467       .  S
C51          H54   1.084       .  S
C55          C56   1.402       .  A
C55          C60   1.406       .  A
C55        C1166   1.479       .  S
C56          C57   1.396       .  A
C56          H61   1.084       .  S
C57          C58   1.400       .  A
C57        C1176   1.475       .  S
C58          C59   1.404       .  A
C58          H62   1.084       .  S
C59          C60   1.402       .  A
C59        C1186   1.479       .  S
C60          H63   1.084       .  S
C64          C65   1.405       .  A
C64          C69   1.401       .  A
C64        C1159   1.477       .  S
C65          C66   1.401       .  A
C65          H70   1.084       .  S
C66          C67   1.403       .  A
C66        C1149   1.481       .  S
C67          C68   1.404   1_554  A
C67          H71   1.084   1_554  S
C68          C69   1.400   1_556  A
C68        C1189   1.474       .  S
C69          H72   1.084   1_554  S
Zr73         O74   2.440       .  S
Zr73         O75   2.458       .  S
Zr73         O76   2.459       .  S
Zr73         O79   2.438       .  S
Zr73         O81   2.385       .  S
Zr73         O82   2.391       .  S
Zr73         O83   2.411       .  S
Zr73         O84   2.409       .  S
O74         H130   0.989       .  S
O74         H138   0.990       .  S
O75          C95   1.287       .  A
O76          C97   1.287       .  A
O77         Zr87   2.433       .  S
O77          C96   1.285       .  A
O78         Zr86   2.420       .  S
O78          C97   1.282       .  A
O79          C96   1.284       .  A
O80         Zr88   2.391       .  S
O80          C95   1.276       .  A
O81         Zr86   2.394       .  S
O81         Zr88   2.378       .  S
O82         Zr87   2.397       .  S
O82         Zr88   2.376       .  S
O82         H117   0.966       .  S
O83         Zr86   2.398       .  S
O83        Zr103   2.397       .  S
O83         H120   0.966       .  S
O84         Zr87   2.389       .  S
O84        Zr103   2.392       .  S
Zr85        O110   2.442       .  S
Zr85        O104   2.416       .  S
Zr85        O112   2.442       .  S
Zr85        O100   2.455       .  S
Zr85         O91   2.394       .  S
Zr85         O92   2.403       .  S
Zr85         O93   2.376       .  S
Zr85         O94   2.392       .  S
Zr86        O105   2.432       .  S
Zr86         O98   2.434       .  S
Zr86         O99   2.419       .  S
Zr86         O92   2.398       .  S
Zr86         O93   2.385       .  S
Zr87         O89   2.434       .  S
Zr87        O111   2.438       .  S
Zr87        O113   2.430       .  S
Zr87         O91   2.389       .  S
Zr87         O94   2.396       .  S
Zr88        O114   2.435       .  S
Zr88        O115   2.436       .  S
Zr88         O90   2.438       .  S
Zr88         O91   2.376       .  S
Zr88         O92   2.380       .  S
O89         H126   0.990       .  S
O90         H121   0.990       .  S
O90         H135   0.989       .  S
O92         H118   0.964       .  S
O93        Zr103   2.385       .  S
O94        Zr103   2.388       .  S
O94         H119   0.966       .  S
C95        C1106   1.470       .  S
C96        C1306   1.493       .  S
C97        C1139   1.500       .  S
O98         H134   0.990       .  S
O99         C101   1.281       .  A
O100        C101   1.287       .  A
C101       C1179   1.479       .  S
O102       Zr103   2.441       .  S
O102        H131   0.990       .  S
Zr103       O106   2.436       .  S
Zr103       O107   2.440       .  S
Zr103       O108   2.418       .  S
O104        C109   1.279       .  A
O105        H122   0.989       .  S
O105        H137   0.988       .  S
O106        H123   0.990       .  S
O107        H127   0.990       .  S
O107        H136   0.990       .  S
O108        C109   1.280       .  A
C109       C1126   1.477       .  S
O110        H129   0.990       .  S
O110        H133   0.990       .  S
O111        H125   0.990       .  S
O111        H132   0.990       .  S
O112        C116   1.286       .  A
O113        C116   1.284       .  A
O114        H124   0.990       .  S
O115        H128   0.990       .  S
C116       C1116   1.480       .  S
Zr139       O140   2.444       .  S
Zr139       O141   2.430       .  S
Zr139       O142   2.432       .  S
Zr139       O145   2.445       .  S
Zr139       O147   2.388       .  S
Zr139       O148   2.389       .  S
Zr139       O149   2.417       .  S
Zr139       O150   2.393       .  S
O140        H196   0.990       .  S
O140        H204   0.990       .  S
O141        C161   1.282       .  A
O142        C163   1.282       .  A
O143       Zr153   2.414       .  S
O143        C162   1.280       .  A
O144       Zr152   2.459       .  S
O144        C163   1.288       .  A
O145        C162   1.285       .  A
O146       Zr154   2.421       .  S
O146        C161   1.280       .  A
O147       Zr152   2.397       .  S
O147       Zr154   2.390       .  S
O148       Zr153   2.384       .  S
O148       Zr154   2.385       .  S
O148        H183   0.965       .  S
O149       Zr152   2.395       .  S
O149       Zr169   2.371       .  S
O149        H186   0.962       .  S
O150       Zr153   2.382       .  S
O150       Zr169   2.385       .  S
Zr151       O176   2.440       .  S
Zr151       O170   2.474       .  S
Zr151       O178   2.433       .  S
Zr151       O166   2.441       .  S
Zr151       O157   2.416       .  S
Zr151       O158   2.417       .  S
Zr151       O159   2.386       .  S
Zr151       O160   2.384       .  S
Zr152       O171   2.439       .  S
Zr152       O164   2.433       .  S
Zr152       O165   2.434       .  S
Zr152       O158   2.401       .  S
Zr152       O159   2.402       .  S
Zr153       O155   2.436       .  S
Zr153       O177   2.437       .  S
Zr153       O179   2.400       .  S
Zr153       O157   2.393       .  S
Zr153       O160   2.395       .  S
Zr154       O180   2.437       .  S
Zr154       O181   2.435       .  S
Zr154       O156   2.435       .  S
Zr154       O157   2.402       .  S
Zr154       O158   2.392       .  S
O155        H192   0.990       .  S
O156        H187   0.990       .  S
O156        H201   0.989       .  S
O158        H184   0.966       .  S
O159       Zr169   2.371       .  S
O160       Zr169   2.377       .  S
O160        H185   0.964       .  S
C161       C1086   1.475       .  S
C162       C1209   1.469       .  S
C163       C1326   1.480       .  S
O164        H200   0.990       .  S
O165        C167   1.286       .  A
O166        C167   1.284       .  A
C167       C1096   1.499       .  S
O168       Zr169   2.437       .  S
O168        H197   0.990       .  S
Zr169       O172   2.436       .  S
Zr169       O173   2.436       .  S
Zr169       O174   2.391       .  S
O170        C175   1.290       .  A
O171        H188   0.990       .  S
O171        H203   0.990       .  S
O172        H189   0.990       .  S
O173        H193   0.990       .  S
O173        H202   0.990       .  S
O174        C175   1.277       .  A
C175       C1076   1.486       .  S
O176        H195   0.991       .  S
O176        H199   0.990       .  S
O177        H191   0.990       .  S
O177        H198   0.988       .  S
O178        C182   1.282       .  A
O179        C182   1.278       .  A
O180        H190   0.990       .  S
O181        H194   0.990       .  S
C182       C1259   1.467       .  S
C205        C206   1.402       .  A
C205        C210   1.399       .  A
C205       C1046   1.472       .  S
C206        C207   1.399       .  A
C206        H211   1.084       .  S
C207        C208   1.403       .  A
C207       C1059   1.477       .  S
C208        C209   1.404       .  A
C208        H212   1.084       .  S
C209        C210   1.400       .  A
C209       C1066   1.473       .  S
C210        H213   1.084       .  S
C214        C215   1.408       .  A
C214        C219   1.402       .  A
C214       C1026   1.487       .  S
C215        C216   1.408       .  A
C215        H220   1.083       .  S
C216        C217   1.403       .  A
C216       C1069   1.476       .  S
C217        C218   1.398       .  A
C217        H221   1.084       .  S
C218        C219   1.393       .  A
C218       C1039   1.472       .  S
C219        H222   1.085       .  S
Zr223       O224   2.446       .  S
Zr223       O225   2.422       .  S
Zr223       O226   2.424       .  S
Zr223       O229   2.426       .  S
Zr223       O231   2.378       .  S
Zr223       O232   2.386       .  S
Zr223       O233   2.412       .  S
Zr223       O234   2.390       .  S
O224        H280   0.990       .  S
O224        H288   0.990       .  S
O225        C245   1.279       .  A
O226        C247   1.280       .  A
O227       Zr237   2.455       .  S
O227        C246   1.288       .  A
O228       Zr236   2.444       .  S
O228        C247   1.283       .  A
O229        C246   1.281       .  A
O230       Zr238   2.419       .  S
O230        C245   1.279       .  A
O231       Zr236   2.383       .  S
O231       Zr238   2.388       .  S
O232       Zr237   2.390       .  S
O232       Zr238   2.391       .  S
O232        H267   0.963       .  S
O233       Zr236   2.387       .  S
O233       Zr253   2.377       .  S
O233        H270   0.966       .  S
O234       Zr237   2.379       .  S
O234       Zr253   2.384       .  S
Zr235       O260   2.439       .  S
Zr235       O254   2.480       .  S
Zr235       O262   2.452       .  S
Zr235       O250   2.468       .  S
Zr235       O241   2.411       .  S
Zr235       O242   2.421       .  S
Zr235       O243   2.386       .  S
Zr235       O244   2.381       .  S
Zr236       O255   2.443       .  S
Zr236       O248   2.434       .  S
Zr236       O249   2.392       .  S
Zr236       O242   2.406       .  S
Zr236       O243   2.404       .  S
Zr237       O239   2.435       .  S
Zr237       O261   2.439       .  S
Zr237       O263   2.424       .  S
Zr237       O241   2.401       .  S
Zr237       O244   2.389       .  S
Zr238       O264   2.437       .  S
Zr238       O265   2.436       .  S
Zr238       O240   2.438       .  S
Zr238       O241   2.393       .  S
Zr238       O242   2.399       .  S
O239        H276   0.990       .  S
O240        H271   0.990       .  S
O240        H285   0.990       .  S
O242        H268   0.966       .  S
O243       Zr253   2.361       .  S
O244       Zr253   2.373       .  S
O244        H269   0.965       .  S
C245       C1156   1.465       .  S
C246       C1056   1.474       .  S
C247       C1006   1.475       .  S
O248        H284   0.990       .  S
O249        C251   1.276       .  A
O250        C251   1.290       .  A
C251       C1229   1.498       .  S
O252       Zr253   2.438       .  S
O252        H281   0.990       .  S
Zr253       O256   2.436       .  S
Zr253       O257   2.440       .  S
Zr253       O258   2.384       .  S
O254        C259   1.291       .  A
O255        H272   0.990       .  S
O255        H287   0.990       .  S
O256        H273   0.990       .  S
O257        H277   0.989       .  S
O257        H286   0.989       .  S
O258        C259   1.276       .  A
C259       C1279   1.482       .  S
O260        H279   0.990       .  S
O260        H283   0.990       .  S
O261        H275   0.990       .  S
O261        H282   0.989       .  S
O262        C266   1.289       .  A
O263        C266   1.284       .  A
O264        H274   0.990       .  S
O265        H278   0.990       .  S
C266       C1019   1.485       .  S
C289        C290   1.411       .  A
C289        C294   1.403       .  A
C289       C1136   1.498       .  S
C290        C291   1.407       .  A
C290        H295   1.083       .  S
C291        C292   1.403       .  A
C291        C996   1.487       .  S
C292        C293   1.405       .  A
C292        H296   1.084       .  S
C293        C294   1.401       .  A
C293        C989   1.489       .  S
C294        H297   1.083       .  S
C298        C299   1.398       .  A
C298        C303   1.411       .  A
C298        C976   1.486       .  S
C299        C300   1.394       .  A
C299        H304   1.085       .  S
C300        C301   1.400       .  A
C300        C966   1.475       .  S
C301        C302   1.406       .  A
C301        H305   1.084       .  S
C302        C303   1.414       .  A
C302        C999   1.491       .  S
C303        H306   1.083       .  S
Zr307       O308   2.442       .  S
Zr307       O309   2.415       .  S
Zr307       O310   2.441       .  S
Zr307       O313   2.423       .  S
Zr307       O315   2.377       .  S
Zr307       O316   2.382       .  S
Zr307       O317   2.405       .  S
Zr307       O318   2.390       .  S
O308        H364   0.990       .  S
O308        H372   0.989       .  S
O309        C329   1.280       .  A
O310        C331   1.285       .  A
O311       Zr321   2.426       .  S
O311        C330   1.282       .  A
O312       Zr320   2.456       .  S
O312        C331   1.288       .  A
O313        C330   1.282       .  A
O314       Zr322   2.411       .  S
O314        C329   1.278       .  A
O315       Zr320   2.401       .  S
O315       Zr322   2.389       .  S
O316       Zr321   2.381       .  S
O316       Zr322   2.375       .  S
O316        H351   0.968       .  S
O317       Zr320   2.400       .  S
O317       Zr337   2.377       .  S
O317        H354   0.963       .  S
O318       Zr321   2.381       .  S
O318       Zr337   2.375       .  S
Zr319       O344   2.439       .  S
Zr319       O338   2.466       .  S
Zr319       O346   2.452       .  S
Zr319       O334   2.455       .  S
Zr319       O325   2.409       .  S
Zr319       O326   2.421       .  S
Zr319       O327   2.384       .  S
Zr319       O328   2.388       .  S
Zr320       O339   2.436       .  S
Zr320       O332   2.435       .  S
Zr320       O333   2.450       .  S
Zr320       O326   2.410       .  S
Zr320       O327   2.399       .  S
Zr321       O323   2.436       .  S
Zr321       O345   2.438       .  S
Zr321       O347   2.391       .  S
Zr321       O325   2.396       .  S
Zr321       O328   2.393       .  S
Zr322       O348   2.436       .  S
Zr322       O349   2.435       .  S
Zr322       O324   2.436       .  S
Zr322       O325   2.390       .  S
Zr322       O326   2.382       .  S
O323        H360   0.990       .  S
O324        H355   0.990       .  S
O324        H369   0.990       .  S
O326        H352   0.964       .  S
O327       Zr337   2.388       .  S
O328       Zr337   2.375       .  S
O328        H353   0.966       .  S
C329        C959   1.464       .  S
C330       C1036   1.471       .  S
C331       C1146   1.487       .  S
O332        H368   0.990       .  S
O333        C335   1.290       .  A
O334        C335   1.287       .  A
C335        C936   1.496       .  S
O336       Zr337   2.440       .  S
O336        H365   0.990       .  S
Zr337       O340   2.437       .  S
Zr337       O341   2.440       .  S
Zr337       O342   2.389       .  S
O338        C343   1.287       .  A
O339        H356   0.990       .  S
O339        H371   0.990       .  S
O340        H357   0.990       .  S
O341        H361   0.990       .  S
O341        H370   0.990       .  S
O342        C343   1.273       .  A
C343        C986   1.470       .  S
O344        H363   0.990       .  S
O344        H367   0.989       .  S
O345        H359   0.990       .  S
O345        H366   0.990       .  S
O346        C350   1.287       .  A
O347        C350   1.277       .  A
O348        H358   0.990       .  S
O349        H362   0.990       .  S
C350        C949   1.471       .  S
C373        C374   1.403       .  A
C373        C378   1.401       .  A
C373        C906   1.482   1_556  S
C374        C375   1.409       .  A
C374        H379   1.083       .  S
C375        C376   1.411       .  A
C375        C916   1.505       .  S
C376        C377   1.405       .  A
C376        H380   1.082       .  S
C377        C378   1.401       .  A
C377        C926   1.484       .  S
C378        H381   1.084   1_556  S
C382        C383   1.406   1_554  A
C382        C387   1.406       .  A
C382        C939   1.491       .  S
C383        C384   1.398       .  A
C383        H388   1.083       .  S
C384        C385   1.404       .  A
C384       C1109   1.491       .  S
C385        C386   1.403       .  A
C385        H389   1.084       .  S
C386        C387   1.403   1_556  A
C386        C929   1.479       .  S
C387        H390   1.083       .  S
C391        C392   1.405       .  A
C391        C396   1.404       .  A
C391       C1099   1.481       .  S
C392        C393   1.406       .  A
C392        H397   1.083       .  S
C393        C394   1.401       .  A
C393        C896   1.477       .  S
C394        C395   1.398       .  A
C394        H398   1.084   1_565  S
C395        C396   1.394       .  A
C395        C886   1.471   1_565  S
C396        H399   1.085       .  S
C400        C401   1.402   1_554  A
C400        C405   1.398       .  A
C400        C866   1.479       .  S
C401        C402   1.403       .  A
C401        H406   1.084       .  S
C402        C403   1.401   1_565  A
C402        C899   1.470       .  S
C403        C404   1.400   1_556  A
C403        H407   1.084       .  S
C404        C405   1.396   1_545  A
C404        C876   1.470       .  S
C405        H408   1.085   1_565  S
Zr409       O410   2.439       .  S
Zr409       O411   2.472       .  S
Zr409       O412   2.459       .  S
Zr409       O415   2.418       .  S
Zr409       O417   2.378       .  S
Zr409       O418   2.382       .  S
Zr409       O419   2.415       .  S
Zr409       O420   2.415       .  S
O410        H466   0.990       .  S
O410        H474   0.990       .  S
O411        C431   1.290       .  A
O412        C433   1.288       .  A
O413       Zr423   2.427       .  S
O413        C432   1.284       .  A
O414       Zr422   2.410       .  S
O414        C433   1.280       .  A
O415        C432   1.282       .  A
O416       Zr424   2.395       .  S
O416        C431   1.278       .  A
O417       Zr422   2.395       .  S
O417       Zr424   2.371       .  S
O418       Zr423   2.385       .  S
O418       Zr424   2.379       .  S
O418        H453   0.965       .  S
O419       Zr422   2.398       .  S
O419       Zr439   2.415       .  S
O419        H456   0.966       .  S
O420       Zr423   2.387       .  S
O420       Zr439   2.396       .  S
Zr421       O446   2.442       .  S
Zr421       O440   2.401       .  S
Zr421       O448   2.439       .  S
Zr421       O436   2.435       .  S
Zr421       O427   2.384       .  S
Zr421       O428   2.408       .  S
Zr421       O429   2.381       .  S
Zr421       O430   2.384       .  S
Zr422       O441   2.435       .  S
Zr422       O434   2.433       .  S
Zr422       O435   2.425       .  S
Zr422       O428   2.401       .  S
Zr422       O429   2.379       .  S
Zr423       O425   2.435       .  S
Zr423       O447   2.440       .  S
Zr423       O449   2.419       .  S
Zr423       O427   2.392       .  S
Zr423       O430   2.389       .  S
Zr424       O450   2.433       .  S
Zr424       O451   2.437       .  S
Zr424       O426   2.438       .  S
Zr424       O427   2.383       .  S
Zr424       O428   2.378       .  S
O425        H462   0.990       .  S
O426        H457   0.990       .  S
O426        H471   0.990       .  S
O428        H454   0.963       .  S
O429       Zr439   2.376       .  S
O430       Zr439   2.387       .  S
O430        H455   0.964       .  S
C431        C919   1.485       .  S
C432        C846   1.473       .  S
C433        C979   1.482       .  S
O434        H470   0.990       .  S
O435        C437   1.283       .  A
O436        C437   1.283       .  A
C437        C889   1.480       .  S
O438       Zr439   2.441       .  S
O438        H467   0.991       .  S
Zr439       O442   2.437       .  S
Zr439       O443   2.442       .  S
Zr439       O444   2.435       .  S
O440        C445   1.277       .  A
O441        H458   0.990       .  S
O441        H473   0.990       .  S
O442        H459   0.990       .  S
O443        H463   0.990       .  S
O443        H472   0.990       .  S
O444        C445   1.284       .  A
C445        C856   1.476       .  S
O446        H465   0.989       .  S
O446        H469   0.990       .  S
O447        H461   0.990       .  S
O447        H468   0.990       .  S
O448        C452   1.284       .  A
O449        C452   1.281       .  A
O450        H460   0.990       .  S
O451        H464   0.990       .  S
C452       C1299   1.472       .  S
C475        C476   1.404       .  A
C475        C480   1.405       .  A
C475        C829   1.480       .  S
C476        C477   1.398       .  A
C476        H481   1.084       .  S
C477        C478   1.398       .  A
C477        C816   1.476       .  S
C478        C479   1.401       .  A
C478        H482   1.084       .  S
C479        C480   1.407       .  A
C479        C836   1.475       .  S
C480        H483   1.083       .  S
C484        C485   1.392       .  A
C484        C489   1.399       .  A
C484        C859   1.470       .  S
C485        C486   1.395       .  A
C485        H490   1.085       .  S
C486        C487   1.407   1_545  A
C486        C839   1.477       .  S
C487        C488   1.414       .  A
C487        H491   1.083       .  S
C488        C489   1.407   1_565  A
C488       C1079   1.496       .  S
C489        H492   1.084       .  S
Zr493       O494   2.442       .  S
Zr493       O495   2.476       .  S
Zr493       O496   2.426       .  S
Zr493       O499   2.413       .  S
Zr493       O501   2.382       .  S
Zr493       O502   2.385       .  S
Zr493       O503   2.416       .  S
Zr493       O504   2.414       .  S
O494        H550   0.990       .  S
O494        H558   0.990       .  S
O495        C515   1.290       .  A
O496        C517   1.280       .  A
O497       Zr507   2.442       .  S
O497        C516   1.286       .  A
O498       Zr506   2.435       .  S
O498        C517   1.286       .  A
O499        C516   1.278       .  A
O500       Zr508   2.380       .  S
O500        C515   1.273       .  A
O501       Zr506   2.399       .  S
O501       Zr508   2.380       .  S
O502       Zr507   2.390       .  S
O502       Zr508   2.376       .  S
O502        H537   0.965       .  S
O503       Zr506   2.399       .  S
O503       Zr523   2.399       .  S
O503        H540   0.965       .  S
O504       Zr507   2.388       .  S
O504       Zr523   2.408       .  S
Zr505       O530   2.444       .  S
Zr505       O524   2.414       .  S
Zr505       O532   2.433       .  S
Zr505       O520   2.437       .  S
Zr505       O511   2.398       .  S
Zr505       O512   2.403       .  S
Zr505       O513   2.380       .  S
Zr505       O514   2.391       .  S
Zr506       O525   2.433       .  S
Zr506       O518   2.434       .  S
Zr506       O519   2.429       .  S
Zr506       O512   2.391       .  S
Zr506       O513   2.396       .  S
Zr507       O509   2.435       .  S
Zr507       O531   2.440       .  S
Zr507       O533   2.433       .  S
Zr507       O511   2.390       .  S
Zr507       O514   2.395       .  S
Zr508       O534   2.434       .  S
Zr508       O535   2.436       .  S
Zr508       O510   2.437       .  S
Zr508       O511   2.377       .  S
Zr508       O512   2.365       .  S
O509        H546   0.990       .  S
O510        H541   0.990       .  S
O510        H555   0.990       .  S
O512        H538   0.941       .  S
O513       Zr523   2.380       .  S
O514       Zr523   2.386       .  S
O514        H539   0.965       .  S
C515        C806   1.477       .  S
C516        C826   1.488       .  S
C517       C1029   1.488       .  S
O518        H554   0.990       .  S
O519        C521   1.283       .  A
O520        C521   1.285       .  A
C521        C969   1.472       .  S
O522       Zr523   2.440       .  S
O522        H551   0.990       .  S
Zr523       O526   2.436       .  S
Zr523       O527   2.440       .  S
Zr523       O528   2.434       .  S
O524        C529   1.279       .  A
O525        H542   0.990       .  S
O525        H557   0.988       .  S
O526        H543   0.990       .  S
O527        H547   0.991       .  S
O527        H556   0.990       .  S
O528        C529   1.282       .  A
C529        C909   1.470       .  S
O530        H549   0.990       .  S
O530        H553   0.991       .  S
O531        H545   0.990       .  S
O531        H552   0.990       .  S
O532        C536   1.281       .  A
O533        C536   1.284       .  A
O534        H544   0.990       .  S
O535        H548   0.990       .  S
C536        C879   1.471       .  S
C559        C560   1.413       .  A
C559        C564   1.397       .  A
C559       C1016   1.485       .  S
C560        C561   1.415       .  A
C560        H565   1.083       .  S
C561        C562   1.401   1_655  A
C561        C799   1.487       .  S
C562        C563   1.398       .  A
C562        H566   1.084       .  S
C563        C564   1.392   1_455  A
C563        C786   1.469       .  S
C564        H567   1.085       .  S
C568        C569   1.404       .  A
C568        C573   1.389       .  A
C568        C946   1.472       .  S
C569        C570   1.410   1_655  A
C569        H574   1.082       .  S
C570        C571   1.420       .  A
C570        C809   1.512       .  S
C571        C572   1.411   1_455  A
C571        H575   1.082       .  S
C572        C573   1.393       .  A
C572        C796   1.479       .  S
C573        H576   1.085       .  S
Zr577       O578   2.438       .  S
Zr577       O579   2.456       .  S
Zr577       O580   2.427       .  S
Zr577       O583   2.422       .  S
Zr577       O585   2.382       .  S
Zr577       O586   2.390       .  S
Zr577       O587   2.409       .  S
Zr577       O588   2.412       .  S
O578        H634   0.990       .  S
O578        H642   0.990       .  S
O579        C599   1.287       .  A
O580        C601   1.283       .  A
O581       Zr591   2.439       .  S
O581        C600   1.286       .  A
O582       Zr590   2.427       .  S
O582        C601   1.283       .  A
O583        C600   1.282       .  A
O584       Zr592   2.383       .  S
O584        C599   1.274       .  A
O585       Zr590   2.387       .  S
O585       Zr592   2.370       .  S
O586       Zr591   2.396       .  S
O586       Zr592   2.365       .  S
O586        H621   0.966       .  S
O587       Zr590   2.394       .  S
O587       Zr607   2.398       .  S
O587        H624   0.966       .  S
O588       Zr591   2.385       .  S
O588       Zr607   2.401       .  S
Zr589       O614   2.444       .  S
Zr589       O608   2.422       .  S
Zr589       O616   2.426       .  S
Zr589       O604   2.444       .  S
Zr589       O595   2.399       .  S
Zr589       O596   2.408       .  S
Zr589       O597   2.376       .  S
Zr589       O598   2.392       .  S
Zr590       O609   2.434       .  S
Zr590       O602   2.434       .  S
Zr590       O603   2.429       .  S
Zr590       O596   2.392       .  S
Zr590       O597   2.385       .  S
Zr591       O593   2.436       .  S
Zr591       O615   2.441       .  S
Zr591       O617   2.437       .  S
Zr591       O595   2.388       .  S
Zr591       O598   2.393       .  S
Zr592       O618   2.435       .  S
Zr592       O619   2.434       .  S
Zr592       O594   2.436       .  S
Zr592       O595   2.372       .  S
Zr592       O596   2.375       .  S
O593        H630   0.990       .  S
O594        H625   0.991       .  S
O594        H639   0.990       .  S
O596        H622   0.963       .  S
O597       Zr607   2.390       .  S
O598       Zr607   2.389       .  S
O598        H623   0.964       .  S
C599       C1249   1.466       .  S
C600       C1049   1.482       .  S
C601       C1199   1.490       .  S
O602        H638   0.991       .  S
O603        C605   1.284       .  A
O604        C605   1.284       .  A
C605        C819   1.482       .  S
O606       Zr607   2.440       .  S
O606        H635   0.990       .  S
Zr607       O610   2.437       .  S
Zr607       O611   2.442       .  S
Zr607       O612   2.412       .  S
O608        C613   1.280       .  A
O609        H626   0.990       .  S
O609        H641   0.989       .  S
O610        H627   0.990       .  S
O611        H631   0.990       .  S
O611        H640   0.990       .  S
O612        C613   1.278       .  A
C613        C869   1.465       .  S
O614        H633   0.990       .  S
O614        H637   0.990       .  S
O615        H629   0.990       .  S
O615        H636   0.990       .  S
O616        C620   1.281       .  A
O617        C620   1.283       .  A
O618        H628   0.990       .  S
O619        H632   0.990       .  S
C620        C789   1.463       .  S
C643        C644   1.403       .  A
C643        C648   1.399       .  A
C643        C776   1.468       .  S
C644        C645   1.401       .  A
C644        H649   1.084       .  S
C645        C646   1.401       .  A
C645       C1119   1.481       .  S
C646        C647   1.402       .  A
C646        H650   1.084       .  S
C647        C648   1.397       .  A
C647        C849   1.469       .  S
C648        H651   1.084       .  S
C652        C653   1.404       .  A
C652        C657   1.402       .  A
C652       C1089   1.475       .  S
C653        C654   1.403       .  A
C653        H658   1.084       .  S
C654        C655   1.403       .  A
C654        C779   1.476       .  S
C655        C656   1.401       .  A
C655        H659   1.084       .  S
C656        C657   1.399       .  A
C656        C766   1.478       .  S
C657        H660   1.084       .  S
C661        C662   1.393       .  A
C661        C666   1.401       .  A
C661        C956   1.461       .  S
C662        C663   1.394       .  A
C662        H667   1.084       .  S
C663        C664   1.398       .  A
C663        C756   1.457       .  S
C664        C665   1.398       .  A
C664        H668   1.084       .  S
C665        C666   1.399       .  A
C665       C1009   1.470       .  S
C666        H669   1.084       .  S
C670        C671   1.394       .  A
C670        C675   1.397       .  A
C670       C1129   1.463       .  S
C671        C672   1.394       .  A
C671        H676   1.084       .  S
C672        C673   1.400       .  A
C672        C759   1.464       .  S
C673        C674   1.402       .  A
C673        H677   1.084       .  S
C674        C675   1.403       .  A
C674        C746   1.484       .  S
C675        H678   1.084       .  S
Zr679       O680   2.442       .  S
Zr679       O681   2.422       .  S
Zr679       O682   2.433       .  S
Zr679       O685   2.448       .  S
Zr679       O687   2.384       .  S
Zr679       O688   2.384       .  S
Zr679       O689   2.413       .  S
Zr679       O690   2.391       .  S
O680        H736   0.990       .  S
O680        H744   0.990       .  S
O681        C701   1.280       .  A
O682        C703   1.283       .  A
O683       Zr693   2.406       .  S
O683        C702   1.279       .  A
O684       Zr692   2.452       .  S
O684        C703   1.287       .  A
O685        C702   1.286       .  A
O686       Zr694   2.408       .  S
O686        C701   1.278       .  A
O687       Zr692   2.392       .  S
O687       Zr694   2.386       .  S
O688       Zr693   2.383       .  S
O688       Zr694   2.382       .  S
O688        H723   0.965       .  S
O689       Zr692   2.392       .  S
O689       Zr709   2.373       .  S
O689        H726   0.962       .  S
O690       Zr693   2.382       .  S
O690       Zr709   2.384       .  S
Zr691       O716   2.439       .  S
Zr691       O710   2.454       .  S
Zr691       O718   2.454       .  S
Zr691       O706   2.440       .  S
Zr691       O697   2.407       .  S
Zr691       O698   2.415       .  S
Zr691       O699   2.390       .  S
Zr691       O700   2.386       .  S
Zr692       O711   2.437       .  S
Zr692       O704   2.433       .  S
Zr692       O705   2.426       .  S
Zr692       O698   2.400       .  S
Zr692       O699   2.396       .  S
Zr693       O695   2.436       .  S
Zr693       O717   2.438       .  S
Zr693       O719   2.390       .  S
Zr693       O697   2.392       .  S
Zr693       O700   2.390       .  S
Zr694       O720   2.437       .  S
Zr694       O721   2.436       .  S
Zr694       O696   2.436       .  S
Zr694       O697   2.395       .  S
Zr694       O698   2.384       .  S
O695        H732   0.990       .  S
O696        H727   0.990       .  S
O696        H741   0.989       .  S
O698        H724   0.964       .  S
O699       Zr709   2.375       .  S
O700       Zr709   2.380       .  S
O700        H725   0.966       .  S
C701       C1319   1.464       .  S
C702       C1219   1.471       .  S
C703        C769   1.480       .  S
O704        H740   0.990       .  S
O705        C707   1.286       .  A
O706        C707   1.284       .  A
C707       C1169   1.491       .  S
O708       Zr709   2.440       .  S
O708        H737   0.990       .  S
Zr709       O712   2.438       .  S
Zr709       O713   2.436       .  S
Zr709       O714   2.393       .  S
O710        C715   1.286       .  A
O711        H728   0.990       .  S
O711        H743   0.990       .  S
O712        H729   0.989       .  S
O713        H733   0.990       .  S
O713        H742   0.989       .  S
O714        C715   1.279       .  A
C715        C749   1.477       .  S
O716        H735   0.990       .  S
O716        H739   0.990       .  S
O717        H731   0.989       .  S
O717        H738   0.990       .  S
O718        C722   1.286       .  A
O719        C722   1.276       .  A
O720        H730   0.990       .  S
O721        H734   0.990       .  S
C722       C1266   1.467       .  S
C745        C746   1.415       .  A
C745        C750   1.397       .  A
C745       Br752   1.935       .  S
C746        C747   1.415       .  A
C747        C748   1.409       .  A
C747       Br754   1.932       .  S
C748        C749   1.409       .  A
C748       Br753   1.919       .  S
C749        C750   1.407       .  A
C750       Br751   1.930       .  S
C755        C756   1.408       .  A
C755        C760   1.401       .  A
C755       Br762   1.928       .  S
C756        C757   1.402       .  A
C757        C758   1.398       .  A
C757       Br764   1.933       .  S
C758        C759   1.413       .  A
C758       Br763   1.930       .  S
C759        C760   1.405       .  A
C760       Br761   1.929       .  S
C765        C766   1.410       .  A
C765        C770   1.414       .  A
C765       Br772   1.927       .  S
C766        C767   1.406       .  A
C767        C768   1.400       .  A
C767       Br774   1.934       .  S
C768        C769   1.414       .  A
C768       Br773   1.932       .  S
C769        C770   1.412       .  A
C770       Br771   1.927       .  S
C775        C776   1.407       .  A
C775        C780   1.402       .  A
C775       Br782   1.929       .  S
C776        C777   1.405       .  A
C777        C778   1.407       .  A
C777       Br784   1.931       .  S
C778        C779   1.413       .  A
C778       Br783   1.924       .  S
C779        C780   1.406       .  A
C780       Br781   1.928       .  S
C785        C786   1.408       .  A
C785        C790   1.404       .  A
C785       Br792   1.927       .  S
C786        C787   1.409       .  A
C787        C788   1.400       .  A
C787       Br794   1.935       .  S
C788        C789   1.408       .  A
C788       Br793   1.925       .  S
C789        C790   1.406       .  A
C790       Br791   1.925       .  S
C795        C796   1.410       .  A
C795        C800   1.409   1_545  A
C795       Br802   1.931       .  S
C796        C797   1.407       .  A
C797        C798   1.408       .  A
C797       Br804   1.929   1_655  S
C798        C799   1.413   1_545  A
C798       Br803   1.928   1_545  S
C799        C800   1.411       .  A
C800       Br801   1.926       .  S
C805        C806   1.407       .  A
C805        C810   1.411       .  A
C805       Br812   1.926       .  S
C806        C807   1.405       .  A
C807        C808   1.412       .  A
C807       Br814   1.935       .  S
C808        C809   1.428       .  A
C808       Br813   1.935       .  S
C809        C810   1.420       .  A
C810       Br811   1.931       .  S
C815        C816   1.406   1_565  A
C815        C820   1.408       .  A
C815       Br822   1.931   1_565  S
C816        C817   1.408   1_545  A
C817        C818   1.405       .  A
C817       Br824   1.929   1_565  S
C818        C819   1.412       .  A
C818       Br823   1.932       .  S
C819        C820   1.418       .  A
C820       Br821   1.932       .  S
C825        C826   1.418       .  A
C825        C830   1.409       .  A
C825       Br832   1.932       .  S
C826        C827   1.411       .  A
C827        C828   1.405       .  A
C827       Br834   1.931       .  S
C828        C829   1.408       .  A
C828       Br833   1.927       .  S
C829        C830   1.407       .  A
C830       Br831   1.929       .  S
C835        C836   1.407       .  A
C835        C840   1.403       .  A
C835       Br842   1.931       .  S
C836        C837   1.409       .  A
C837        C838   1.410       .  A
C837       Br844   1.927       .  S
C838        C839   1.409       .  A
C838       Br843   1.927       .  S
C839        C840   1.411       .  A
C840       Br841   1.931       .  S
C845        C846   1.414       .  A
C845        C850   1.405       .  A
C845       Br852   1.933       .  S
C846        C847   1.412       .  A
C847        C848   1.403       .  A
C847       Br854   1.930       .  S
C848        C849   1.405       .  A
C848       Br853   1.930       .  S
C849        C850   1.407       .  A
C850       Br851   1.930       .  S
C855        C856   1.415       .  A
C855        C860   1.405       .  A
C855       Br862   1.932       .  S
C856        C857   1.414       .  A
C857        C858   1.404       .  A
C857       Br864   1.933       .  S
C858        C859   1.406       .  A
C858       Br863   1.931       .  S
C859        C860   1.406       .  A
C860       Br861   1.932       .  S
C865        C866   1.414       .  A
C865        C870   1.402       .  A
C865       Br872   1.931       .  S
C866        C867   1.414       .  A
C867        C868   1.405       .  A
C867       Br874   1.931       .  S
C868        C869   1.406       .  A
C868       Br873   1.930       .  S
C869        C870   1.406       .  A
C870       Br871   1.931       .  S
C875        C876   1.407       .  A
C875        C880   1.400       .  A
C875       Br882   1.935       .  S
C876        C877   1.409       .  A
C877        C878   1.407       .  A
C877       Br884   1.930       .  S
C878        C879   1.410       .  A
C878       Br883   1.923       .  S
C879        C880   1.410       .  A
C880       Br881   1.927       .  S
C885        C886   1.405       .  A
C885        C890   1.402       .  A
C885       Br892   1.933   1_545  S
C886        C887   1.404       .  A
C887        C888   1.407       .  A
C887       Br894   1.928       .  S
C888        C889   1.415       .  A
C888       Br893   1.931       .  S
C889        C890   1.417       .  A
C890       Br891   1.932       .  S
C895        C896   1.409       .  A
C895        C900   1.407       .  A
C895       Br902   1.928       .  S
C896        C897   1.413       .  A
C897        C898   1.402       .  A
C897       Br904   1.927       .  S
C898        C899   1.403       .  A
C898       Br903   1.932   1_565  S
C899        C900   1.409       .  A
C900       Br901   1.928       .  S
C905        C906   1.409       .  A
C905        C910   1.405       .  A
C905       Br912   1.926       .  S
C906        C907   1.413       .  A
C907        C908   1.408       .  A
C907       Br914   1.928   1_554  S
C908        C909   1.406       .  A
C908       Br913   1.930       .  S
C909        C910   1.407       .  A
C910       Br911   1.928       .  S
C915        C916   1.421       .  A
C915        C920   1.401       .  A
C915       Br922   1.937       .  S
C916        C917   1.426       .  A
C917        C918   1.415       .  A
C917       Br924   1.929       .  S
C918        C919   1.405       .  A
C918       Br923   1.928       .  S
C919        C920   1.409       .  A
C920       Br921   1.934       .  S
C925        C926   1.408       .  A
C925        C930   1.410       .  A
C925       Br932   1.927       .  S
C926        C927   1.414       .  A
C927        C928   1.406       .  A
C927       Br934   1.927       .  S
C928        C929   1.405       .  A
C928       Br933   1.931       .  S
C929        C930   1.411       .  A
C930       Br931   1.928       .  S
C935        C936   1.417       .  A
C935        C940   1.411       .  A
C935       Br942   1.925       .  S
C936        C937   1.415       .  A
C937        C938   1.405       .  A
C937       Br944   1.932       .  S
C938        C939   1.415       .  A
C938       Br943   1.934       .  S
C939        C940   1.411       .  A
C940       Br941   1.934       .  S
C945        C946   1.410       .  A
C945        C950   1.402       .  A
C945       Br952   1.931       .  S
C946        C947   1.404       .  A
C947        C948   1.406       .  A
C947       Br954   1.927       .  S
C948        C949   1.412       .  A
C948       Br953   1.926       .  S
C949        C950   1.406       .  A
C950       Br951   1.925       .  S
C955        C956   1.404       .  A
C955        C960   1.398       .  A
C955       Br962   1.931       .  S
C956        C957   1.405       .  A
C957        C958   1.404       .  A
C957       Br964   1.929       .  S
C958        C959   1.409       .  A
C958       Br963   1.926       .  S
C959        C960   1.412       .  A
C960       Br961   1.933       .  S
C965        C966   1.409       .  A
C965        C970   1.400       .  A
C965       Br972   1.935       .  S
C966        C967   1.409       .  A
C967        C968   1.410       .  A
C967       Br974   1.927       .  S
C968        C969   1.410   1_556  A
C968       Br973   1.928   1_556  S
C969        C970   1.413   1_554  A
C970       Br971   1.934   1_556  S
C975        C976   1.409       .  A
C975        C980   1.414       .  A
C975       Br982   1.927       .  S
C976        C977   1.412       .  A
C977        C978   1.404       .  A
C977       Br984   1.932       .  S
C978        C979   1.410       .  A
C978       Br983   1.933       .  S
C979        C980   1.413       .  A
C980       Br981   1.925       .  S
C985        C986   1.408       .  A
C985        C990   1.408   1_554  A
C985       Br992   1.923       .  S
C986        C987   1.407   1_554  A
C987        C988   1.405       .  A
C987       Br994   1.934       .  S
C988        C989   1.417       .  A
C988       Br993   1.936       .  S
C989        C990   1.414       .  A
C990       Br991   1.932       .  S
C995        C996   1.412   1_455  A
C995       C1000   1.411       .  A
C995      Br1002   1.931   1_455  S
C996        C997   1.407   1_655  A
C997        C998   1.411       .  A
C997      Br1004   1.929       .  S
C998        C999   1.415       .  A
C998      Br1003   1.930       .  S
C999       C1000   1.413       .  A
C1000     Br1001   1.931       .  S
C1005      C1006   1.411       .  A
C1005      C1010   1.409       .  A
C1005     Br1012   1.928       .  S
C1006      C1007   1.417       .  A
C1007      C1008   1.399       .  A
C1007     Br1014   1.935       .  S
C1008      C1009   1.405       .  A
C1008     Br1013   1.936       .  S
C1009      C1010   1.408       .  A
C1010     Br1011   1.929       .  S
C1015      C1016   1.411       .  A
C1015      C1020   1.409       .  A
C1015     Br1022   1.928       .  S
C1016      C1017   1.412       .  A
C1017      C1018   1.411       .  A
C1017     Br1024   1.931       .  S
C1018      C1019   1.413       .  A
C1018     Br1023   1.930       .  S
C1019      C1020   1.411       .  A
C1020     Br1021   1.930       .  S
C1025      C1026   1.411       .  A
C1025      C1030   1.406       .  A
C1025     Br1032   1.933       .  S
C1026      C1027   1.412       .  A
C1027      C1028   1.406       .  A
C1027     Br1034   1.929       .  S
C1028      C1029   1.414       .  A
C1028     Br1033   1.930       .  S
C1029      C1030   1.417       .  A
C1030     Br1031   1.934       .  S
C1035      C1036   1.412       .  A
C1035      C1040   1.401       .  A
C1035     Br1042   1.934       .  S
C1036      C1037   1.411       .  A
C1037      C1038   1.408       .  A
C1037     Br1044   1.929       .  S
C1038      C1039   1.410   1_655  A
C1038     Br1043   1.929   1_655  S
C1039      C1040   1.406   1_455  A
C1040     Br1041   1.930   1_655  S
C1045      C1046   1.406       .  A
C1045      C1050   1.403       .  A
C1045     Br1052   1.930       .  S
C1046      C1047   1.408       .  A
C1047      C1048   1.408       .  A
C1047     Br1054   1.931       .  S
C1048      C1049   1.415       .  A
C1048     Br1053   1.928       .  S
C1049      C1050   1.411       .  A
C1050     Br1051   1.930       .  S
C1055      C1056   1.412       .  A
C1055      C1060   1.403       .  A
C1055     Br1062   1.923       .  S
C1056      C1057   1.407       .  A
C1057      C1058   1.409       .  A
C1057     Br1064   1.929       .  S
C1058      C1059   1.412   1_655  A
C1058     Br1063   1.926   1_655  S
C1059      C1060   1.406   1_455  A
C1060     Br1061   1.934   1_655  S
C1065      C1066   1.409       .  A
C1065      C1070   1.409       .  A
C1065     Br1072   1.928       .  S
C1066      C1067   1.406       .  A
C1067      C1068   1.403       .  A
C1067     Br1074   1.932       .  S
C1068      C1069   1.411       .  A
C1068     Br1073   1.927       .  S
C1069      C1070   1.408       .  A
C1070     Br1071   1.928       .  S
C1075      C1076   1.409       .  A
C1075      C1080   1.414       .  A
C1075     Br1082   1.925       .  S
C1076      C1077   1.412       .  A
C1077      C1078   1.404       .  A
C1077     Br1084   1.934       .  S
C1078      C1079   1.414       .  A
C1078     Br1083   1.933       .  S
C1079      C1080   1.419       .  A
C1080     Br1081   1.932       .  S
C1085      C1086   1.412       .  A
C1085      C1090   1.409       .  A
C1085     Br1092   1.928       .  S
C1086      C1087   1.410       .  A
C1087      C1088   1.403       .  A
C1087     Br1094   1.933       .  S
C1088      C1089   1.409       .  A
C1088     Br1093   1.927       .  S
C1089      C1090   1.407       .  A
C1090     Br1091   1.928       .  S
C1095      C1096   1.416       .  A
C1095      C1100   1.405       .  A
C1095     Br1102   1.932       .  S
C1096      C1097   1.420       .  A
C1097      C1098   1.409       .  A
C1097     Br1104   1.927       .  S
C1098      C1099   1.406       .  A
C1098     Br1103   1.931       .  S
C1099      C1100   1.409       .  A
C1100     Br1101   1.930       .  S
C1105      C1106   1.407       .  A
C1105      C1110   1.408       .  A
C1105     Br1112   1.923       .  S
C1106      C1107   1.405       .  A
C1107      C1108   1.405       .  A
C1107     Br1114   1.933       .  S
C1108      C1109   1.419       .  A
C1108     Br1113   1.935       .  S
C1109      C1110   1.415       .  A
C1110     Br1111   1.932       .  S
C1115      C1116   1.411       .  A
C1115      C1120   1.409       .  A
C1115     Br1122   1.928       .  S
C1116      C1117   1.413       .  A
C1117      C1118   1.406       .  A
C1117     Br1124   1.932       .  S
C1118      C1119   1.410       .  A
C1118     Br1123   1.930       .  S
C1119      C1120   1.410       .  A
C1120     Br1121   1.931       .  S
C1125      C1126   1.417       .  A
C1125      C1130   1.401       .  A
C1125     Br1132   1.936       .  S
C1126      C1127   1.416       .  A
C1127      C1128   1.404       .  A
C1127     Br1134   1.929       .  S
C1128      C1129   1.404       .  A
C1128     Br1133   1.934       .  S
C1129      C1130   1.404       .  A
C1130     Br1131   1.933       .  S
C1135      C1136   1.416       .  A
C1135      C1140   1.414       .  A
C1135     Br1142   1.932       .  S
C1136      C1137   1.415       .  A
C1137      C1138   1.404       .  A
C1137     Br1144   1.936       .  S
C1138      C1139   1.418       .  A
C1138     Br1143   1.931       .  S
C1139      C1140   1.418       .  A
C1140     Br1141   1.931       .  S
C1145      C1146   1.412       .  A
C1145      C1150   1.412       .  A
C1145     Br1152   1.928       .  S
C1146      C1147   1.418       .  A
C1147      C1148   1.407       .  A
C1147     Br1154   1.932       .  S
C1148      C1149   1.406       .  A
C1148     Br1153   1.932       .  S
C1149      C1150   1.410       .  A
C1150     Br1151   1.928       .  S
C1155      C1156   1.406       .  A
C1155      C1160   1.404       .  A
C1155     Br1162   1.932       .  S
C1156      C1157   1.407       .  A
C1157      C1158   1.406       .  A
C1157     Br1164   1.929       .  S
C1158      C1159   1.411       .  A
C1158     Br1163   1.929       .  S
C1159      C1160   1.411       .  A
C1160     Br1161   1.930       .  S
C1165      C1166   1.411       .  A
C1165      C1170   1.410       .  A
C1165     Br1172   1.932       .  S
C1166      C1167   1.410       .  A
C1167      C1168   1.400       .  A
C1167     Br1174   1.932       .  S
C1168      C1169   1.412       .  A
C1168     Br1173   1.932       .  S
C1169      C1170   1.415       .  A
C1170     Br1171   1.926       .  S
C1175      C1176   1.408       .  A
C1175      C1180   1.405       .  A
C1175     Br1182   1.927       .  S
C1176      C1177   1.405       .  A
C1177      C1178   1.407       .  A
C1177     Br1184   1.930       .  S
C1178      C1179   1.414       .  A
C1178     Br1183   1.929       .  S
C1179      C1180   1.412       .  A
C1180     Br1181   1.932       .  S
C1185      C1186   1.409       .  A
C1185      C1190   1.411       .  A
C1185     Br1192   1.928       .  S
C1186      C1187   1.410       .  A
C1187      C1188   1.401       .  A
C1187     Br1194   1.926       .  S
C1188      C1189   1.405       .  A
C1188     Br1193   1.931       .  S
C1189      C1190   1.410       .  A
C1190     Br1191   1.927       .  S
C1195      C1196   1.406       .  A
C1195      C1200   1.404       .  A
C1195     Br1202   1.936       .  S
C1196      C1197   1.409       .  A
C1197      C1198   1.409       .  A
C1197     Br1204   1.932       .  S
C1198      C1199   1.421       .  A
C1198     Br1203   1.937       .  S
C1199      C1200   1.422       .  A
C1200     Br1201   1.934       .  S
C1205      C1206   1.406       .  A
C1205      C1210   1.403       .  A
C1205     Br1212   1.930       .  S
C1206      C1207   1.407       .  A
C1207      C1208   1.405       .  A
C1207     Br1214   1.931       .  S
C1208      C1209   1.411       .  A
C1208     Br1213   1.929       .  S
C1209      C1210   1.408       .  A
C1210     Br1211   1.927       .  S
C1215      C1216   1.408       .  A
C1215      C1220   1.408       .  A
C1215     Br1222   1.930       .  S
C1216      C1217   1.406       .  A
C1217      C1218   1.402       .  A
C1217     Br1224   1.931       .  S
C1218      C1219   1.410       .  A
C1218     Br1223   1.928       .  S
C1219      C1220   1.412       .  A
C1220     Br1221   1.931       .  S
C1225      C1226   1.407       .  A
C1225      C1230   1.410       .  A
C1225     Br1232   1.931       .  S
C1226      C1227   1.402       .  A
C1227      C1228   1.403       .  A
C1227     Br1234   1.936       .  S
C1228      C1229   1.427       .  A
C1228     Br1233   1.938       .  S
C1229      C1230   1.418       .  A
C1230     Br1231   1.927       .  S
C1235      C1236   1.406       .  A
C1235      C1240   1.403       .  A
C1235     Br1242   1.930       .  S
C1236      C1237   1.409       .  A
C1237      C1238   1.405       .  A
C1237     Br1244   1.930       .  S
C1238      C1239   1.407       .  A
C1238     Br1243   1.928       .  S
C1239      C1240   1.408       .  A
C1240     Br1241   1.929       .  S
C1245      C1246   1.412       .  A
C1245      C1250   1.404       .  A
C1245     Br1252   1.932       .  S
C1246      C1247   1.417       .  A
C1247      C1248   1.407       .  A
C1247     Br1254   1.935       .  S
C1248      C1249   1.408       .  A
C1248     Br1253   1.933       .  S
C1249      C1250   1.410       .  A
C1250     Br1251   1.929       .  S
C1255      C1256   1.411       .  A
C1255      C1260   1.401       .  A
C1255     Br1262   1.932       .  S
C1256      C1257   1.407       .  A
C1257      C1258   1.405       .  A
C1257     Br1264   1.929       .  S
C1258      C1259   1.411       .  A
C1258     Br1263   1.930       .  S
C1259      C1260   1.408       .  A
C1260     Br1261   1.931       .  S
C1265      C1266   1.406       .  A
C1265      C1270   1.407       .  A
C1265     Br1272   1.928       .  S
C1266      C1267   1.408       .  A
C1267      C1268   1.406       .  A
C1267     Br1274   1.930       .  S
C1268      C1269   1.409       .  A
C1268     Br1273   1.930       .  S
C1269      C1270   1.411       .  A
C1270     Br1271   1.926       .  S
C1275      C1276   1.422       .  A
C1275      C1280   1.402       .  A
C1275     Br1282   1.939       .  S
C1276      C1277   1.421       .  A
C1277      C1278   1.414       .  A
C1277     Br1284   1.930       .  S
C1278      C1279   1.405       .  A
C1278     Br1283   1.918       .  S
C1279      C1280   1.408       .  A
C1280     Br1281   1.934       .  S
C1285      C1286   1.403       .  A
C1285      C1290   1.400   1_455  A
C1285     Br1292   1.933       .  S
C1286      C1287   1.410       .  A
C1287      C1288   1.411       .  A
C1287     Br1294   1.926       .  S
C1288      C1289   1.411   1_455  A
C1288     Br1293   1.927   1_455  S
C1289      C1290   1.414       .  A
C1290     Br1291   1.930       .  S
C1295      C1296   1.408       .  A
C1295      C1300   1.403       .  A
C1295     Br1302   1.932       .  S
C1296      C1297   1.411       .  A
C1297      C1298   1.409       .  A
C1297     Br1304   1.927       .  S
C1298      C1299   1.408       .  A
C1298     Br1303   1.928       .  S
C1299      C1300   1.410       .  A
C1300     Br1301   1.930       .  S
C1305      C1306   1.417       .  A
C1305      C1310   1.411       .  A
C1305     Br1312   1.930       .  S
C1306      C1307   1.414       .  A
C1307      C1308   1.409       .  A
C1307     Br1314   1.931       .  S
C1308      C1309   1.410       .  A
C1308     Br1313   1.930       .  S
C1309      C1310   1.411       .  A
C1310     Br1311   1.930       .  S
C1315      C1316   1.409       .  A
C1315      C1320   1.402       .  A
C1315     Br1322   1.928       .  S
C1316      C1317   1.406       .  A
C1317      C1318   1.404       .  A
C1317     Br1324   1.930       .  S
C1318      C1319   1.408       .  A
C1318     Br1323   1.928       .  S
C1319      C1320   1.408       .  A
C1320     Br1321   1.931       .  S
C1325      C1326   1.415       .  A
C1325      C1330   1.402       .  A
C1325     Br1332   1.932       .  S
C1326      C1327   1.409       .  A
C1327      C1328   1.414       .  A
C1327     Br1334   1.928       .  S
C1328      C1329   1.413       .  A
C1328     Br1333   1.927       .  S
C1329      C1330   1.406       .  A
C1330     Br1331   1.935       .  S
C1335      C1336   1.409       .  A
C1335      C1340   1.409   1_565  A
C1335     Br1342   1.928       .  S
C1336      C1337   1.412       .  A
C1337      C1338   1.408   1_565  A
C1337     Br1344   1.926       .  S
C1338      C1339   1.407       .  A
C1338     Br1343   1.930       .  S
C1339      C1340   1.410       .  A
C1340     Br1341   1.928       .  S
