geometry optimzed in LAMMPS
_audit_creation_date              2020-11-30 
_audit_creation_method            'lammps2cif' 
_symmetry_space_group_name_H-M    'P1' 
_symmetry_Int_Tables_number       1 
_symmetry_cell_setting            triclinic 
loop_ 
_symmetry_equiv_pos_as_xyz 
  x,y,z 
_cell_length_a                    35.66952386 
_cell_length_b                    35.66226829614122 
_cell_length_c                    35.63435957158383 
_cell_angle_alpha                 89.99693863817856 
_cell_angle_beta                  89.98556757112298 
_cell_angle_gamma                 90.02544288219576 
loop_ 
_atom_site_label 
_atom_site_type_symbol 
_atom_site_fract_x 
_atom_site_fract_y 
_atom_site_fract_z 
_atom_site_charge 
C1          C  0.64724944  0.12140098  0.87040376     0.79300
N2          N  0.65535417  0.11035336  0.83448601    -0.79000
C3          C  0.66483903  0.13633158  0.80804987     0.81800
N4          N  0.66662176  0.17297643  0.81766738    -0.78900
C5          C  0.65749696  0.18450888  0.85263584     0.81900
N6          N  0.64811159  0.15869482  0.87907620    -0.80600
C7          C  0.82456986  0.13762179  0.69681384     0.79300
N8          N  0.78920470  0.12410875  0.70217658    -0.79000
C9          C  0.76119847  0.14752114  0.71309012     0.81800
N10         N  0.76880456  0.18429970  0.71901457    -0.78900
C11         C  0.80358410  0.19836631  0.71263361     0.81900
N12         N  0.83171439  0.17482437  0.70224554    -0.80600
C13         C  0.80855304  0.29682560  0.87525994     0.79300
N14         N  0.77146642  0.29172876  0.88299097    -0.79000
C15         C  0.74643574  0.28629776  0.85479935     0.81800
N16         N  0.75869795  0.28497526  0.81886841    -0.78900
C17         C  0.79528315  0.29086950  0.81048516     0.81900
N18         N  0.82038254  0.29629571  0.83877756    -0.80600
C19         C  0.64386264  0.28585352  0.87271742     0.79300
N20         N  0.63651688  0.24840740  0.86926319    -0.79000
C21         C  0.66485480  0.22376782  0.86247500     0.81800
N22         N  0.70033221  0.23666779  0.85852493    -0.78900
C23         C  0.70825253  0.27349866  0.86288988     0.81900
N24         N  0.68000323  0.29813945  0.86958633    -0.80600
C25         C  0.81848010  0.30150992  0.70943768     0.79300
N26         N  0.81345186  0.31011191  0.74646277    -0.79000
C27         C  0.80766865  0.28245252  0.77210869     0.81800
N28         N  0.80567383  0.24639061  0.76046515    -0.78900
C29         C  0.81131031  0.23719587  0.72404986     0.81900
N30         N  0.81751240  0.26481393  0.69838259    -0.80600
C31         C  0.66270181  0.11460263  0.70640453     0.79300
N32         N  0.65219001  0.11636443  0.74320603    -0.79000
C33         C  0.67746929  0.12594932  0.77014259     0.81800
N34         N  0.71295070  0.13522767  0.75989310    -0.78900
C35         C  0.72405775  0.13295165  0.72355313     0.81900
N36         N  0.69872692  0.12323759  0.69679791    -0.80600
C37         C  0.14344211  0.29099828  0.87725774     0.79300
N38         N  0.13498218  0.28740454  0.84000104    -0.79000
C39         C  0.16286840  0.28151451  0.81454948     0.81800
N40         N  0.19858425  0.27768504  0.82655293    -0.78900
C41         C  0.20740520  0.28109352  0.86325688     0.81900
N42         N  0.17979375  0.28750413  0.88882603    -0.80600
C43         C  0.15578463  0.12986087  0.69929229     0.79300
N44         N  0.19229763  0.11885136  0.70398178    -0.79000
C45         C  0.21915867  0.14462918  0.71308767     0.81800
N46         N  0.20916270  0.18084549  0.71876816    -0.78900
C47         C  0.17341548  0.19221091  0.71334873     0.81900
N48         N  0.14693223  0.16671068  0.70378440    -0.80600
C49         C  0.32004816  0.12606902  0.87560794     0.79300
N50         N  0.31379200  0.16213742  0.88678718    -0.79000
C51         C  0.30611209  0.18913318  0.86093621     0.81800
N52         N  0.30367462  0.17975957  0.82413789    -0.78900
C53         C  0.31039673  0.14416972  0.81257462     0.81900
N54         N  0.31788513  0.11722747  0.83842217    -0.80600
C55         C  0.30892298  0.29104584  0.88037641     0.79300
N56         N  0.32010828  0.25463405  0.87703830    -0.79000
C57         C  0.29437435  0.22693368  0.87229818     0.81800
N58         N  0.25750768  0.23591025  0.87003738    -0.78900
C59         C  0.24585081  0.27186648  0.87434991     0.81900
N60         N  0.27169934  0.29950133  0.87878628    -0.80600
C61         C  0.32127788  0.12363124  0.71095378     0.79300
N62         N  0.28491017  0.12738700  0.69939002    -0.79000
C63         C  0.25711653  0.13352586  0.72485273     0.81800
N64         N  0.26613289  0.13792107  0.76150637    -0.78900
C65         C  0.30196308  0.13424051  0.77349274     0.81900
N66         N  0.32968222  0.12737165  0.74815293    -0.80600
C67         C  0.15001153  0.29332743  0.71216720     0.79300
N68         N  0.15670049  0.25772390  0.70014760    -0.79000
C69         C  0.16253565  0.22989228  0.72543599     0.81800
N70         N  0.16253308  0.23790282  0.76260117    -0.78900
C71         C  0.15525376  0.27310785  0.77499000     0.81900
N72         N  0.14975908  0.30110700  0.74964016    -0.80600
C73         C  0.31469135  0.78545921  0.87376989     0.79300
N74         N  0.31325715  0.79488015  0.83667964    -0.79000
C75         C  0.30698499  0.76811780  0.81019521     0.81800
N76         N  0.30085600  0.73217502  0.82108348    -0.78900
C77         C  0.30266139  0.72232680  0.85778252     0.81900
N78         N  0.30885512  0.74911578  0.88416050    -0.80600
C79         C  0.14733000  0.79225669  0.70643171     0.79300
N80         N  0.18456974  0.80088404  0.70918313    -0.79000
C81         C  0.21008867  0.77351910  0.71670179     0.81800
N82         N  0.19818662  0.73797435  0.72264991    -0.78900
C83         C  0.16149819  0.72891752  0.71963749     0.81900
N84         N  0.13597856  0.75612814  0.71207150    -0.80600
C85         C  0.14270456  0.61768862  0.87650006     0.79300
N86         N  0.13289855  0.62430956  0.84012136    -0.79000
C87         C  0.15960456  0.63202861  0.81412570     0.81800
N88         N  0.19589375  0.63448113  0.82475465    -0.78900
C89         C  0.20627638  0.62774738  0.86067223     0.81900
N90         N  0.17955213  0.61983665  0.88684930    -0.80600
C91         C  0.30826121  0.62096938  0.88012797     0.79300
N92         N  0.27131083  0.61110351  0.87768022    -0.79000
C93         C  0.24476594  0.63780074  0.87123352     0.81800
N94         N  0.25544721  0.67391408  0.86588409    -0.78900
C95         C  0.29188261  0.68412703  0.86861878     0.81900
N96         N  0.31827967  0.65754628  0.87512391    -0.80600
C97         C  0.13936805  0.62792917  0.71252215     0.79300
N98         N  0.14320895  0.66473893  0.70298650    -0.79000
C99         C  0.14998031  0.69087320  0.72991459     0.81800
N100        N  0.15406285  0.67992361  0.76612265    -0.78900
C101        C  0.14962725  0.64349412  0.77600652     0.81900
N102        N  0.14311316  0.61741639  0.74907195    -0.80600
C103        C  0.31229924  0.79222225  0.70851983     0.79300
N104        N  0.32298976  0.78623154  0.74492324    -0.79000
C105        C  0.29680348  0.77868766  0.77170433     0.81800
N106        N  0.26028208  0.77613279  0.76192143    -0.78900
C107        C  0.24910050  0.78234422  0.72621568     0.81900
N108        N  0.27517215  0.78975979  0.69936179    -0.80600
C109        C  0.81144869  0.80211740  0.70485863     0.79300
N110        N  0.82217021  0.76577990  0.71014194    -0.79000
C111        C  0.79622079  0.73873094  0.71681919     0.81800
N112        N  0.75953555  0.74815522  0.71889100    -0.78900
C113        C  0.74811897  0.78390837  0.71280882     0.81900
N114        N  0.77418494  0.81116577  0.70616472    -0.80600
C115        C  0.63247367  0.78796209  0.86555251     0.79300
N116        N  0.63776227  0.79971334  0.82948242    -0.79000
C117        C  0.64747850  0.77482654  0.80226013     0.81800
N118        N  0.65338756  0.73840910  0.81149512    -0.78900
C119        C  0.64770144  0.72617331  0.84706202     0.81900
N120        N  0.63779740  0.75107106  0.87412276    -0.80600
C121        C  0.81032931  0.62508548  0.87270705     0.79300
N122        N  0.77290493  0.62762414  0.88065178    -0.79000
C123        C  0.74783147  0.63512200  0.85281836     0.81800
N124        N  0.76045866  0.64175676  0.81762716    -0.78900
C125        C  0.79735388  0.63923162  0.80914219     0.81900
N126        N  0.82248502  0.63123286  0.83681794    -0.80600
C127        C  0.82058196  0.63815813  0.70772219     0.79300
N128        N  0.81553678  0.67505844  0.69912162    -0.79000
C129        C  0.80740880  0.70028578  0.72648128     0.81800
N130        N  0.80327098  0.68831076  0.76237261    -0.78900
C131        C  0.80919138  0.65184897  0.77164398     0.81900
N132        N  0.81731657  0.62663675  0.74411894    -0.80600
C133        C  0.64555727  0.62490442  0.87143962     0.79300
N134        N  0.63409488  0.66090451  0.86540476    -0.79000
C135        C  0.65948348  0.68806717  0.85705682     0.81800
N136        N  0.69624653  0.67914333  0.85419078    -0.78900
C137        C  0.70832545  0.64376345  0.86088833     0.81900
N138        N  0.68285998  0.61638771  0.86877487    -0.80600
C139        C  0.64588806  0.80123665  0.70143770     0.79300
N140        N  0.68338477  0.79993275  0.69346633    -0.79000
C141        C  0.70870249  0.79283576  0.72118158     0.81800
N142        N  0.69627362  0.78583135  0.75640585    -0.78900
C143        C  0.65935380  0.78769965  0.76496066     0.81900
N144        N  0.63405993  0.79513027  0.73738612    -0.80600
C145        C  0.14442027  0.61630904  0.21214689     0.79300
N146        N  0.18111859  0.62046255  0.20203694    -0.79000
C147        C  0.20731386  0.62930308  0.22841650     0.81800
N148        N  0.19654016  0.63496932  0.26444868    -0.78900
C149        C  0.16044191  0.62992742  0.27505806     0.81900
N150        N  0.13434557  0.62099542  0.24879634    -0.80600
C151        C  0.14006907  0.79115371  0.38317148     0.79300
N152        N  0.13026283  0.75462031  0.37727670    -0.79000
C153        C  0.15687181  0.72895589  0.36793741     0.81800
N154        N  0.19278457  0.74020225  0.36305401    -0.78900
C155        C  0.20298313  0.77627950  0.36915616     0.81900
N156        N  0.17648663  0.80193932  0.37872219    -0.80600
C157        C  0.31153646  0.78974379  0.20941245     0.79300
N158        N  0.30557683  0.80071159  0.24558220    -0.79000
C159        C  0.29765740  0.77494666  0.27246603     0.81800
N160        N  0.29443682  0.73833263  0.26292154    -0.78900
C161        C  0.30090641  0.72683451  0.22724006     0.81900
N162        N  0.30892503  0.75265965  0.20028599    -0.80600
C163        C  0.30888739  0.62511003  0.20613604     0.79300
N164        N  0.27234353  0.61451614  0.21047306    -0.79000
C165        C  0.24547323  0.64046373  0.21781316     0.81800
N166        N  0.25537811  0.67685286  0.22213982    -0.78900
C167        C  0.29136900  0.68802309  0.21743565     0.81900
N168        N  0.31830729  0.66204881  0.20997019    -0.80600
C169        C  0.30347349  0.80261068  0.37250886     0.79300
N170        N  0.26707657  0.79797952  0.38334954    -0.79000
C171        C  0.24073126  0.78778756  0.35768224     0.81800
N172        N  0.25107053  0.78131320  0.32165215    -0.78900
C173        C  0.28694885  0.78651939  0.31044129     0.81900
N174        N  0.31330146  0.79640187  0.33606405    -0.80600
C175        C  0.13569615  0.62765556  0.37612927     0.79300
N176        N  0.14089505  0.61625307  0.33997602    -0.79000
C177        C  0.14926596  0.64179544  0.31289456     0.81800
N178        N  0.15323255  0.67845621  0.32227304    -0.78900
C179        C  0.14703145  0.69026309  0.35791289     0.81900
N180        N  0.13889671  0.66470645  0.38495508    -0.80600
C181        C  0.63381478  0.78870318  0.20715724     0.79300
N182        N  0.63808047  0.75158481  0.19877090    -0.79000
C183        C  0.64760599  0.72677914  0.22626325     0.81800
N184        N  0.65404460  0.73950096  0.26161046    -0.78900
C185        C  0.64878716  0.77611585  0.27036149     0.81900
N186        N  0.63888339  0.80061817  0.24307920    -0.80600
C187        C  0.80716621  0.80368644  0.37808718     0.79300
N188        N  0.81702527  0.76682288  0.37497190    -0.79000
C189        C  0.79073051  0.74027061  0.36769798     0.81800
N190        N  0.75466951  0.75071248  0.36247431    -0.78900
C191        C  0.74406388  0.78699969  0.36612721     0.81900
N192        N  0.77046472  0.81369626  0.37328608    -0.80600
C193        C  0.80922849  0.62148798  0.21422047     0.79300
N194        N  0.77240986  0.62416890  0.20385944    -0.79000
C195        C  0.74590347  0.63443515  0.22939159     0.81800
N196        N  0.75647146  0.64338429  0.26477573    -0.78900
C197        C  0.79267375  0.64036111  0.27565682     0.81900
N198        N  0.81907022  0.62976418  0.25032346    -0.80600
C199        C  0.64453301  0.62410894  0.20679130     0.79300
N200        N  0.63348450  0.66074099  0.21000564    -0.79000
C201        C  0.65901316  0.68819904  0.21718163     0.81800
N202        N  0.69544622  0.67893153  0.22203817    -0.78900
C203        C  0.70719594  0.64306186  0.21824905     0.81900
N204        N  0.68162829  0.61554427  0.21130061    -0.80600
C205        C  0.81703727  0.64001559  0.37662913     0.79300
N206        N  0.81122363  0.67676630  0.38551459    -0.79000
C207        C  0.80148642  0.70168326  0.35835220     0.81800
N208        N  0.79639733  0.68952813  0.32266342    -0.78900
C209        C  0.80301654  0.65327646  0.31332309     0.81900
N210        N  0.81304797  0.62843099  0.34041513    -0.80600
C211        C  0.64269009  0.81113479  0.36811257     0.79300
N212        N  0.67931336  0.80836561  0.37909230    -0.79000
C213        C  0.70589943  0.79679785  0.35413890     0.81800
N214        N  0.69549434  0.78665715  0.31896031    -0.78900
C215        C  0.65943870  0.78980757  0.30764997     0.81900
N216        N  0.63310534  0.80177635  0.33228058    -0.80600
C217        C  0.80484459  0.30086625  0.21147713     0.79300
N218        N  0.81281406  0.29907125  0.24887731    -0.79000
C219        C  0.78537748  0.29077089  0.27403834     0.81800
N220        N  0.75041599  0.28272229  0.26149979    -0.78900
C221        C  0.74196180  0.28483918  0.22449400     0.81900
N222        N  0.76931540  0.29355565  0.19934162    -0.80600
C223        C  0.81101007  0.13339595  0.37565023     0.79300
N224        N  0.77568772  0.12042265  0.36895278    -0.79000
C225        C  0.74702135  0.14472747  0.36316332     0.81800
N226        N  0.75403921  0.18208079  0.36259274    -0.78900
C227        C  0.78892526  0.19560372  0.36969674     0.81900
N228        N  0.81762252  0.17110876  0.37560582    -0.80600
C229        C  0.63793322  0.12168370  0.20258203     0.79300
N230        N  0.64183849  0.15856752  0.19282539    -0.79000
C231        C  0.65105264  0.18452632  0.21926797     0.81800
N232        N  0.65758298  0.17330472  0.25495020    -0.78900
C233        C  0.65327915  0.13701886  0.26525021     0.81900
N234        N  0.64360920  0.11101305  0.23897702    -0.80600
C235        C  0.64097466  0.28653401  0.20087708     0.79300
N236        N  0.63248099  0.24922558  0.20305094    -0.79000
C237        C  0.66007941  0.22357212  0.20942339     0.81800
N238        N  0.69579129  0.23553347  0.21496640    -0.78900
C239        C  0.70470247  0.27238372  0.21223658     0.81900
N240        N  0.67716168  0.29778252  0.20588292    -0.80600
C241        C  0.64786849  0.11394220  0.36655763     0.79300
N242        N  0.68382575  0.12116571  0.37727500    -0.79000
C243        C  0.70995679  0.13117449  0.35140039     0.81800
N244        N  0.69982862  0.13470679  0.31488930    -0.78900
C245        C  0.66443898  0.12646828  0.30355199     0.81900
N246        N  0.63830928  0.11663969  0.32955938    -0.80600
C247        C  0.80945862  0.29819084  0.37555940     0.79300
N248        N  0.80373115  0.30792922  0.33886600    -0.79000
C249        C  0.79465384  0.28135896  0.31303318     0.81800
N250        N  0.79047582  0.24534150  0.32397403    -0.78900
C251        C  0.79655093  0.23492971  0.35993399     0.81900
N252        N  0.80572283  0.26140382  0.38598487    -0.80600
C253        C  0.14256776  0.29079035  0.21329977     0.79300
N254        N  0.13472842  0.28852543  0.25078464    -0.79000
C255        C  0.16271350  0.28224871  0.27597653     0.81800
N256        N  0.19822037  0.27736447  0.26355109    -0.78900
C257        C  0.20664509  0.28037920  0.22666176     0.81900
N258        N  0.17876807  0.28677469  0.20142364    -0.80600
C259        C  0.31512455  0.12281799  0.20984154     0.79300
N260        N  0.30923915  0.15914736  0.19921148    -0.79000
C261        C  0.30376497  0.18633212  0.22536508     0.81800
N262        N  0.30289306  0.17695974  0.26216466    -0.78900
C263        C  0.30899693  0.14118907  0.27345295     0.81900
N264        N  0.31448117  0.11389786  0.24718951    -0.80600
C265        C  0.15491251  0.12705331  0.38376988     0.79300
N266        N  0.14483071  0.16380086  0.38120085    -0.79000
C267        C  0.17114926  0.19060235  0.37496332     0.81800
N268        N  0.20748997  0.18040125  0.37025522    -0.78900
C269        C  0.21811593  0.14400136  0.37337187     0.81900
N270        N  0.19158562  0.11719440  0.37911009    -0.80600
C271        C  0.32037400  0.12407929  0.37590729     0.79300
N272        N  0.32874822  0.12660372  0.33852571    -0.79000
C273        C  0.30089742  0.13205435  0.31291887     0.81800
N274        N  0.26515479  0.13649765  0.32497667    -0.78900
C275        C  0.25633695  0.13377352  0.36182809     0.81900
N276        N  0.28403362  0.12780153  0.38741093    -0.80600
C277        C  0.14701910  0.29178142  0.37853819     0.79300
N278        N  0.15280902  0.25566804  0.38977525    -0.79000
C279        C  0.15986541  0.22854999  0.36390462     0.81800
N280        N  0.16151190  0.23767015  0.32706147    -0.78900
C281        C  0.15480819  0.27316301  0.31537000     0.81900
N282        N  0.14820178  0.30043939  0.34121037    -0.80600
C283        C  0.30752113  0.28800011  0.20318898     0.79300
N284        N  0.27065880  0.29723262  0.20750051    -0.79000
C285        C  0.24467220  0.27027651  0.21474196     0.81800
N286        N  0.25583079  0.23420608  0.21915673    -0.78900
C287        C  0.29223982  0.22439325  0.21458735     0.81900
N288        N  0.31813492  0.25141638  0.20726868    -0.80600
O289        O  0.43320574  0.41830727  0.16729602    -0.73800
O290        O  0.51755233  0.49486506  0.16792765    -0.74800
O291        O  0.51332622  0.41444974  0.16724030    -0.63400
O292        O  0.43714272  0.49860435  0.16791636    -0.71900
O293        O  0.43500588  0.49544965  0.23005261    -0.71400
O294        O  0.51549986  0.41659306  0.22941118    -0.62700
O295        O  0.51490176  0.49665612  0.23011245    -0.75200
O296        O  0.43587147  0.41556923  0.22943427    -0.74000
Cu297      Cu  0.47531490  0.45660231  0.16537160     1.04600
Cu298      Cu  0.47532495  0.45607729  0.23186301     1.04300
C299        C  0.42198931  0.40422640  0.19836647     0.92400
C300        C  0.52895090  0.50830431  0.19921926     0.91500
C301        C  0.52685150  0.40273766  0.19834785     0.83600
C302        C  0.42341886  0.50958753  0.19921235     0.89900
O303        O  0.16852963  0.50215275  0.58323372    -0.73800
O304        O  0.16857733  0.42265948  0.50330891    -0.74800
O305        O  0.16471719  0.50229631  0.50364141    -0.63400
O306        O  0.17222321  0.42283862  0.58303470    -0.71900
O307        O  0.11048788  0.42060814  0.58707057    -0.71400
O308        O  0.10276865  0.49871088  0.50506627    -0.62700
O309        O  0.10671700  0.41835690  0.50698795    -0.75200
O310        O  0.10642578  0.50060011  0.58514326    -0.74000
Cu311      Cu  0.17057688  0.46259370  0.54315390     1.04600
Cu312      Cu  0.10439175  0.45946420  0.54613084     1.04300
C313        C  0.13759098  0.51381132  0.59699829     0.92400
C314        C  0.13782908  0.40750807  0.49281567     0.91500
C315        C  0.13273383  0.51310994  0.49159864     0.83600
C316        C  0.14272003  0.40928878  0.59810121     0.89900
O317        O  0.45024673  0.14462831  0.50341058    -0.73800
O318        O  0.53339287  0.14195517  0.58048729    -0.74800
O319        O  0.52952604  0.14015691  0.50062481    -0.63400
O320        O  0.45307481  0.14666740  0.58365891    -0.71900
O321        O  0.44948233  0.08469876  0.58567400    -0.71400
O322        O  0.52746505  0.07805981  0.50294181    -0.62700
O323        O  0.52961766  0.07998498  0.58327533    -0.75200
O324        O  0.44716515  0.08268066  0.50492502    -0.74000
Cu325      Cu  0.49169249  0.14544475  0.54212374     1.04600
Cu326      Cu  0.48829086  0.07918774  0.54432247     1.04300
C327        C  0.43573788  0.11400052  0.49159732     0.92400
C328        C  0.54499621  0.11067013  0.59368675     0.91500
C329        C  0.54045637  0.10824853  0.48850672     0.83600
C330        C  0.43870011  0.11684450  0.59746889     0.89900
O331        O  0.79651714  0.43065385  0.58181724    -0.73800
O332        O  0.79796705  0.50989332  0.50128248    -0.74800
O333        O  0.79510633  0.43005335  0.50142317    -0.63400
O334        O  0.79893984  0.51058471  0.58057615    -0.71900
O335        O  0.86099439  0.50876700  0.58030842    -0.71400
O336        O  0.85717600  0.42721909  0.50022156    -0.62700
O337        O  0.85998097  0.50813772  0.49977291    -0.75200
O338        O  0.85858402  0.42811306  0.58052580    -0.74000
Cu339      Cu  0.79508941  0.47028114  0.54129826     1.04600
Cu340      Cu  0.86140769  0.46796617  0.54016136     1.04300
C341        C  0.82728749  0.41668263  0.59382846     0.92400
C342        C  0.82903555  0.52197743  0.48805473     0.91500
C343        C  0.82527747  0.41603216  0.48807467     0.83600
C344        C  0.83035166  0.52262712  0.59293183     0.89900
O345        O  0.43563457  0.77849634  0.49761901    -0.73800
O346        O  0.51926788  0.78071630  0.57303783    -0.74800
O347        O  0.43979409  0.77607715  0.57762070    -0.63400
O348        O  0.51499327  0.78350016  0.49356502    -0.71900
O349        O  0.51340772  0.84554432  0.49648866    -0.71400
O350        O  0.43408960  0.83800888  0.57777730    -0.62700
O351        O  0.51436419  0.84255897  0.57710192    -0.75200
O352        O  0.43282251  0.84042420  0.49744903    -0.74000
Cu353      Cu  0.47751443  0.77764943  0.53537563     1.04600
Cu354      Cu  0.47354241  0.84387152  0.53727918     1.04300
C355        C  0.42129868  0.80876113  0.48496477     0.92400
C356        C  0.52975583  0.81179977  0.58742786     0.91500
C357        C  0.42497318  0.80589075  0.59092091     0.83600
C358        C  0.52626365  0.81543617  0.48179116     0.89900
O359        O  0.43824851  0.49548368  0.91333215    -0.73800
O360        O  0.52008940  0.41719282  0.91274572    -0.74800
O361        O  0.51856291  0.49750048  0.91179173    -0.63400
O362        O  0.44005817  0.41572546  0.91393849    -0.71900
O363        O  0.43678546  0.41743074  0.85180177    -0.71400
O364        O  0.51977320  0.49410072  0.84965710    -0.62700
O365        O  0.51650851  0.41397985  0.85066610    -0.75200
O366        O  0.43964607  0.49699816  0.85112590    -0.74000
Cu367      Cu  0.47931518  0.45652493  0.91512712     1.04600
Cu368      Cu  0.47818790  0.45564998  0.84865141     1.04300
C369        C  0.42628712  0.50882401  0.88226588     0.92400
C370        C  0.53063568  0.40271302  0.88166117     0.91500
C371        C  0.53208063  0.50815958  0.88028452     0.83600
C372        C  0.42569415  0.40409164  0.88318951     0.89900
O373        O  0.01913305  0.92505171  0.35146972    -0.73800
O374        O  0.94249060  0.00727016  0.34753887    -0.74800
O375        O  0.02250917  0.00458384  0.35022045    -0.63400
O376        O  0.93971779  0.92712806  0.34937858    -0.71900
O377        O  0.93693947  0.92959229  0.41151516    -0.71400
O378        O  0.02113149  0.00525771  0.41235739    -0.62700
O379        O  0.94109148  0.00961573  0.40957463    -0.75200
O380        O  0.01719490  0.92480687  0.41341710    -0.74000
Cu381      Cu  0.98101506  0.96606114  0.34756085     1.04600
Cu382      Cu  0.97905548  0.96742373  0.41390085     1.04300
C383        C  0.02996008  0.91123315  0.38264719     0.92400
C384        C  0.92929600  0.02136000  0.37772766     0.91500
C385        C  0.03534599  0.01669228  0.38146647     0.83600
C386        C  0.92543477  0.91600806  0.38039149     0.89900
O387        O  0.94269513  0.92842895  0.72163848    -0.73800
O388        O  0.02663821  0.00412863  0.71855993    -0.74800
O389        O  0.94758989  0.00810182  0.71711133    -0.63400
O390        O  0.02223593  0.92411973  0.72314136    -0.71900
O391        O  0.02353064  0.92066359  0.66098952    -0.71400
O392        O  0.94833016  0.00564627  0.65505835    -0.62700
O393        O  0.02858665  0.00056704  0.65643244    -0.75200
O394        O  0.94267289  0.92528337  0.65958442    -0.74000
Cu395      Cu  0.98476891  0.96625489  0.72215751     1.04600
Cu396      Cu  0.98579182  0.96282915  0.65578522     1.04300
C397        C  0.92910685  0.91500517  0.69125997     0.92400
C398        C  0.04066248  0.01455001  0.68722060     0.91500
C399        C  0.93632138  0.02055191  0.68541914     0.83600
C400        C  0.03472425  0.90911022  0.69308492     0.89900
O401        O  0.35207958  0.99573902  0.00149618    -0.73800
O402        O  0.34879926  0.91387572  0.07973539    -0.74800
O403        O  0.34991576  0.91525320  0.99947185    -0.63400
O404        O  0.35039181  0.99409947  0.08196017    -0.71900
O405        O  0.28842150  0.99680894  0.07869669    -0.71400
O406        O  0.28780545  0.91541601  0.00030133    -0.62700
O407        O  0.28674620  0.91700534  0.07998947    -0.75200
O408        O  0.28996256  0.99522703  0.99867640    -0.74000
Cu409      Cu  0.35250449  0.95470119  0.04065605     1.04600
Cu410      Cu  0.28614262  0.95618234  0.03935502     1.04300
C411        C  0.32150015  0.00797789  0.98735497     0.92400
C412        C  0.31718779  0.90305526  0.09274598     0.91500
C413        C  0.31860468  0.90227480  0.98757861     0.83600
C414        C  0.31926397  0.00823657  0.09295740     0.89900
O415        O  0.01295103  0.27020982  0.08622073    -0.73800
O416        O  0.93278474  0.27268043  0.00631414    -0.74800
O417        O  0.01281114  0.26846784  0.00571543    -0.63400
O418        O  0.93343019  0.27452444  0.08618290    -0.71900
O419        O  0.93616304  0.33649344  0.08479035    -0.71400
O420        O  0.01638451  0.33036766  0.00412480    -0.62700
O421        O  0.93630294  0.33467554  0.00416507    -0.75200
O422        O  0.01669422  0.33224821  0.08444706    -0.74000
Cu423      Cu  0.97291345  0.26938633  0.04614040     1.04600
Cu424      Cu  0.97649902  0.33562162  0.04436645     1.04300
C425        C  0.02749831  0.30081394  0.09795693     0.92400
C426        C  0.92196598  0.30394259  0.99245380     0.91500
C427        C  0.02701803  0.29834961  0.99184153     0.83600
C428        C  0.92204257  0.30633261  0.09821810     0.89900
O429        O  0.65335741  0.91230581  0.07647885    -0.73800
O430        O  0.65704194  0.99123167  0.99640404    -0.74800
O431        O  0.65536179  0.99183240  0.07602054    -0.63400
O432        O  0.65442753  0.91088945  0.99710890    -0.71900
O433        O  0.59228276  0.91326807  0.99504901    -0.71400
O434        O  0.59331663  0.99306239  0.07600988    -0.62700
O435        O  0.59488319  0.99341185  0.99499963    -0.75200
O436        O  0.59123861  0.91230079  0.07541187    -0.74000
Cu437      Cu  0.65709152  0.95148533  0.03648191     1.04600
Cu438      Cu  0.59068341  0.95308665  0.03532959     1.04300
C439        C  0.62212916  0.89962336  0.08860530     0.92400
C440        C  0.62675889  0.00499355  0.98315410     0.91500
C441        C  0.62460396  0.00514418  0.08880875     0.83600
C442        C  0.62325391  0.89919673  0.98379140     0.89900
O443        O  0.93473758  0.64558894  0.00716642    -0.73800
O444        O  0.01695809  0.64116034  0.08469335    -0.74800
O445        O  0.01462644  0.64390227  0.00482695    -0.63400
O446        O  0.93751816  0.64235001  0.08754077    -0.71900
O447        O  0.93521198  0.58027806  0.08436989    -0.71400
O448        O  0.01439943  0.58182978  0.00296007    -0.62700
O449        O  0.01611007  0.57906284  0.08313092    -0.75200
O450        O  0.93400959  0.58367911  0.00357653    -0.74000
Cu451      Cu  0.97596875  0.64531232  0.04611245     1.04600
Cu452      Cu  0.97484304  0.57900743  0.04345095     1.04300
C453        C  0.92138194  0.61556964  0.99280548     0.92400
C454        C  0.02962458  0.60967309  0.09622662     0.91500
C455        C  0.02678214  0.61322010  0.99080933     0.83600
C456        C  0.92435015  0.61109382  0.09919013     0.89900
C457        C  0.35871310  0.37992522  0.18029043    -0.10100
C458        C  0.39313429  0.37424890  0.19853068     0.06100
C459        C  0.39943103  0.33992147  0.21702747    -0.03800
C460        C  0.37165394  0.31214312  0.21716387    -0.08300
C461        C  0.33669264  0.31790041  0.19978229     0.05300
C462        C  0.33040699  0.35245494  0.18116850    -0.03300
Br463      Br  0.28445987  0.36376006  0.15547337    -0.03000
H464        H  0.35354190  0.40615606  0.16591066     0.09200
H465        H  0.37726140  0.28613583  0.23177244     0.07200
Br466      Br  0.44609468  0.32895139  0.24152088    -0.03400
C467        C  0.16537233  0.38056606  0.43466522    -0.10100
C468        C  0.13873572  0.37777816  0.46357367     0.06100
C469        C  0.11484454  0.34613620  0.46439889    -0.03800
C470        C  0.11758901  0.31860779  0.43630222    -0.08300
C471        C  0.14376399  0.32194690  0.40702289     0.05300
C472        C  0.16812037  0.35311759  0.40671564    -0.03300
Br473      Br  0.20797869  0.35805678  0.37081875    -0.03000
H474        H  0.18447160  0.40418698  0.43391732     0.09200
H475        H  0.09939906  0.29430162  0.43749542     0.07200
Br476      Br  0.08024170  0.33731062  0.50472978    -0.03400
C477        C  0.35025172  0.09100265  0.43014757    -0.10100
C478        C  0.35076318  0.12076597  0.40435725     0.06100
C479        C  0.37925804  0.14801004  0.40750105    -0.03800
C480        C  0.40631663  0.14522852  0.43599519    -0.08300
C481        C  0.40620418  0.11525268  0.46174224     0.05300
C482        C  0.37772036  0.08775739  0.45830387    -0.03300
Br483      Br  0.37325902  0.04614825  0.49219887    -0.03000
H484        H  0.32827865  0.07008620  0.42838074     0.09200
H485        H  0.42769383  0.16673066  0.43792691     0.07200
Br486      Br  0.38114473  0.19092958  0.37504623    -0.03400
C487        C  0.12540392  0.06951260  0.35782300    -0.10100
C488        C  0.12542799  0.09781031  0.38518635     0.06100
C489        C  0.09608470  0.09882682  0.41165401    -0.03800
C490        C  0.06734674  0.07198319  0.41022158    -0.08300
C491        C  0.06668952  0.04421972  0.38216733     0.05300
C492        C  0.09637062  0.04308811  0.35588547    -0.03300
Br493      Br  0.09997278  0.00531782  0.31764299    -0.03000
H494        H  0.14774686  0.06843501  0.33721632     0.09200
H495        H  0.04506747  0.07317807  0.43087553     0.07200
Br496      Br  0.09475026  0.13541882  0.45111648    -0.03400
C497        C  0.34220752  0.03474753  0.15403244    -0.10100
C498        C  0.31870733  0.03786576  0.12247964     0.06100
C499        C  0.29461122  0.06916933  0.11998936    -0.03800
C500        C  0.29432878  0.09627560  0.14849232    -0.08300
C501        C  0.31727236  0.09297335  0.18042987     0.05300
C502        C  0.34138373  0.06160206  0.18300792    -0.03300
Br503      Br  0.37505485  0.05471238  0.22440928    -0.03000
H504        H  0.36095479  0.01098485  0.15645115     0.09200
H505        H  0.27561887  0.12003713  0.14576287     0.07200
Br506      Br  0.26273598  0.07765814  0.07738459    -0.03400
C507        C  0.11793134  0.31665135  0.15288584    -0.10100
C508        C  0.11189183  0.29458355  0.18507117     0.06100
C509        C  0.07762672  0.27475440  0.18818029    -0.03800
C510        C  0.05066814  0.27727571  0.15959694    -0.08300
C511        C  0.05664976  0.29961496  0.12771506     0.05300
C512        C  0.09070560  0.31947046  0.12454743    -0.03300
Br513      Br  0.10265943  0.34845716  0.08075498    -0.03000
H514        H  0.14416675  0.33161743  0.14958015     0.09200
H515        H  0.02480734  0.26154047  0.16225805     0.07200
Br516      Br  0.06679601  0.24136528  0.22907739    -0.03400
C517        C  0.79652775  0.36259052  0.39998867    -0.10100
C518        C  0.81555314  0.32827437  0.40424987     0.06100
C519        C  0.83917975  0.32378282  0.43585460    -0.03800
C520        C  0.84293275  0.35296302  0.46226023    -0.08300
C521        C  0.82287317  0.38667555  0.45842078     0.05300
C522        C  0.79972430  0.39134039  0.42667902    -0.03300
Br523      Br  0.77291448  0.43712802  0.41753109    -0.03000
H524        H  0.77839679  0.36693121  0.37602644     0.09200
H525        H  0.86098583  0.34896877  0.48632807     0.07200
Br526      Br  0.86817617  0.27918545  0.44387770    -0.03400
C527        C  0.62403887  0.08454300  0.42571420    -0.10100
C528        C  0.61850693  0.10963439  0.39576755     0.06100
C529        C  0.58676720  0.13326933  0.39640680    -0.03800
C530        C  0.56177952  0.13184843  0.42664429    -0.08300
C531        C  0.56723873  0.10692663  0.45662580     0.05300
C532        C  0.59856921  0.08275074  0.45580152    -0.03300
Br533      Br  0.60961450  0.04912620  0.49635264    -0.03000
H534        H  0.64861616  0.06671398  0.42600932     0.09200
H535        H  0.53799389  0.15074348  0.42691037     0.07200
Br536      Br  0.57763643  0.17065070  0.35867778    -0.03400
C537        C  0.61566184  0.34845748  0.22042040    -0.10100
C538        C  0.61094817  0.31554048  0.19915477     0.06100
C539        C  0.57809969  0.31169471  0.17729123    -0.03800
C540        C  0.55122645  0.34055327  0.17688282    -0.08300
C541        C  0.55599396  0.37313005  0.19858315     0.05300
C542        C  0.58865030  0.37686199  0.22047440    -0.03300
Br543      Br  0.59897530  0.42113445  0.24940993    -0.03000
H544        H  0.64051834  0.35212491  0.23749508     0.09200
H545        H  0.52626511  0.33734173  0.15986787     0.07200
Br546      Br  0.56910004  0.26875369  0.14613069    -0.03400
C547        C  0.65728981  0.05934871  0.11832116    -0.10100
C548        C  0.62603638  0.03530175  0.11791502     0.06100
C549        C  0.59809907  0.04031786  0.14576715    -0.03800
C550        C  0.60214480  0.06863045  0.17306729    -0.08300
C551        C  0.63332536  0.09272181  0.17294547     0.05300
C552        C  0.66103369  0.08771935  0.14521639    -0.03300
Br553      Br  0.70597256  0.11733673  0.14425781    -0.03000
H554        H  0.67923079  0.05605998  0.09751410     0.09200
H555        H  0.58087217  0.07178980  0.19457416     0.07200
Br556      Br  0.55505021  0.00820874  0.14962019    -0.03400
C557        C  0.84534906  0.08032347  0.34692300    -0.10100
C558        C  0.84257166  0.10636152  0.37627932     0.06100
C559        C  0.86941725  0.10540410  0.40523280    -0.03800
C560        C  0.89739196  0.07764915  0.40518105    -0.08300
C561        C  0.90001207  0.05117890  0.37593213     0.05300
C562        C  0.87383884  0.05335404  0.34611583    -0.03300
Br563      Br  0.87371716  0.01961531  0.30405775    -0.03000
H564        H  0.82514410  0.08105509  0.32421145     0.09200
H565        H  0.91728968  0.07685360  0.42813917     0.07200
Br566      Br  0.86799649  0.14016931  0.44625692    -0.03400
C567        C  0.88967873  0.27629626  0.15239437    -0.10100
C568        C  0.89272743  0.30735295  0.12820304     0.06100
C569        C  0.86696374  0.33729560  0.13273763    -0.03800
C570        C  0.83857495  0.33502069  0.16011771    -0.08300
C571        C  0.83577387  0.30378558  0.18390647     0.05300
C572        C  0.86185705  0.27445298  0.18002995    -0.03300
Br573      Br  0.85940320  0.23013187  0.21054936    -0.03000
H574        H  0.90900318  0.25305099  0.14976292     0.09200
H575        H  0.81854115  0.35765211  0.16276146     0.07200
Br576      Br  0.86748854  0.38114960  0.10150626    -0.03400
C577        C  0.58125869  0.79178158  0.39363758    -0.10100
C578        C  0.61225202  0.81588698  0.39623223     0.06100
C579        C  0.61350785  0.84201369  0.42597872    -0.03800
C580        C  0.58455033  0.84268208  0.45290208    -0.08300
C581        C  0.55451438  0.81707241  0.45112364     0.05300
C582        C  0.55288775  0.79198264  0.42057880    -0.03300
Br583      Br  0.51224897  0.75762821  0.41312951    -0.03000
H584        H  0.57951167  0.77164961  0.37094534     0.09200
H585        H  0.58610634  0.86249133  0.47587845     0.07200
Br586      Br  0.65332326  0.87789700  0.43043884    -0.03400
C587        C  0.85254023  0.58703682  0.40555148    -0.10100
C588        C  0.82192353  0.61175530  0.40663200     0.06100
C589        C  0.79460629  0.60715961  0.43478895    -0.03800
C590        C  0.79787714  0.57802387  0.46085938    -0.08300
C591        C  0.82835437  0.55299060  0.45998130     0.05300
C592        C  0.85626079  0.55815198  0.43218005    -0.03300
Br593      Br  0.89901380  0.52583509  0.42744018    -0.03000
H594        H  0.87338436  0.59005599  0.38388126     0.09200
H595        H  0.77630691  0.57488206  0.48178567     0.07200
Br596      Br  0.75056990  0.63803971  0.43742463    -0.03400
C597        C  0.59466743  0.52999523  0.18747068    -0.18500
C598        C  0.55819986  0.53793244  0.19989111     0.06100
C599        C  0.55032615  0.57400569  0.21373812    -0.03800
C600        C  0.57847934  0.60146021  0.21473802    -0.08300
C601        C  0.61546733  0.59374695  0.20300878     0.05300
C602        C  0.62333385  0.55710974  0.18938489    -0.03300
Br603      Br  0.67206230  0.54165655  0.17242598    -0.03000
H604        H  0.60110268  0.50222218  0.17695970     0.09200
H605        H  0.57135713  0.62888776  0.22563945     0.07200
Br606      Br  0.50112891  0.58731848  0.23104471    -0.03400
C607        C  0.87441259  0.63230247  0.19099976    -0.10100
C608        C  0.83924605  0.61513266  0.18558990     0.06100
C609        C  0.83363837  0.59394907  0.15243535    -0.03800
C610        C  0.86206335  0.59193600  0.12513669    -0.08300
C611        C  0.89624761  0.61087591  0.12991289     0.05300
C612        C  0.90259582  0.63037184  0.16368891    -0.03300
Br613      Br  0.94988615  0.65364165  0.17462037    -0.03000
H614        H  0.87989637  0.64821685  0.21630482     0.09200
H615        H  0.85708681  0.57618641  0.09961284     0.07200
Br616      Br  0.78860898  0.56595344  0.14315558    -0.03400
C617        C  0.87149980  0.82586619  0.36217438    -0.10100
C618        C  0.83724452  0.83271121  0.38058108     0.06100
C619        C  0.83278715  0.86709013  0.39986702    -0.03800
C620        C  0.86187842  0.89373426  0.39978141    -0.08300
C621        C  0.89552236  0.88710532  0.38037489     0.05300
C622        C  0.90030863  0.85254979  0.36188856    -0.03300
Br623      Br  0.94650009  0.83930914  0.33774145    -0.03000
H624        H  0.87587353  0.79969291  0.34743503     0.09200
H625        H  0.85808517  0.91989110  0.41468531     0.07200
Br626      Br  0.78870796  0.87857406  0.42850992    -0.03400
C627        C  0.65140606  0.87381684  0.14592589    -0.10100
C628        C  0.62284166  0.87106981  0.11899546     0.06100
C629        C  0.59767739  0.84047420  0.12104206    -0.03800
C630        C  0.60152797  0.81363296  0.14977479    -0.08300
C631        C  0.62993241  0.81693785  0.17689665     0.05300
C632        C  0.65518969  0.84731619  0.17447909    -0.03300
Br633      Br  0.69746001  0.85281971  0.20750321    -0.03000
H634        H  0.67132018  0.89673825  0.14462445     0.09200
H635        H  0.58229598  0.79014557  0.15095230     0.07200
Br636      Br  0.55938135  0.83243879  0.08413434    -0.03400
C637        C  0.10363597  0.57388923  0.40779452    -0.10100
C638        C  0.13346914  0.59950717  0.40649171     0.06100
C639        C  0.16219771  0.59686689  0.43345630    -0.03800
C640        C  0.16093516  0.56887391  0.46085688    -0.08300
C641        C  0.13120363  0.54302881  0.46247627     0.05300
C642        C  0.10200658  0.54604357  0.43569455    -0.03300
Br643      Br  0.06030344  0.51203242  0.43414688    -0.03000
H644        H  0.08157496  0.57549300  0.38696170     0.09200
H645        H  0.18363634  0.56724475  0.48098756     0.07200
Br646      Br  0.20528357  0.62920838  0.43267566    -0.03400
C647        C  0.35847886  0.77578671  0.40446624    -0.10100
C648        C  0.33332226  0.80566744  0.40109875     0.06100
C649        C  0.33683640  0.83650548  0.42545262    -0.03800
C650        C  0.36597557  0.83735974  0.45203470    -0.08300
C651        C  0.39115963  0.80709015  0.45586106     0.05300
C652        C  0.38659686  0.77574498  0.43176518    -0.03300
Br653      Br  0.41710862  0.73144369  0.43371162    -0.03000
H654        H  0.35563507  0.75166137  0.38612443     0.09200
H655        H  0.36846401  0.86155876  0.47028640     0.07200
Br656      Br  0.30296794  0.87814800  0.42283517    -0.03400
C657        C  0.33372778  0.56200313  0.22246386    -0.10100
C658        C  0.33842523  0.59578942  0.20264073     0.06100
C659        C  0.37119150  0.60054219  0.18078274    -0.03800
C660        C  0.39826305  0.57193421  0.17936147    -0.08300
C661        C  0.39375490  0.53865356  0.19997090     0.05300
C662        C  0.36093648  0.53376754  0.22144037    -0.03300
Br663      Br  0.35080210  0.48820720  0.24836970    -0.03000
H664        H  0.30885808  0.55760387  0.23935391     0.09200
H665        H  0.42324203  0.57594424  0.16252161     0.07200
Br666      Br  0.37986457  0.64452157  0.15096675    -0.03400
C667        C  0.34140623  0.84424171  0.12218227    -0.10100
C668        C  0.31587472  0.87430525  0.12281940     0.06100
C669        C  0.28981007  0.87652231  0.15255119    -0.03800
C670        C  0.28958350  0.84907130  0.18058714    -0.08300
C671        C  0.31450587  0.81861613  0.17959498     0.05300
C672        C  0.34062899  0.81630909  0.14996854    -0.03300
Br673      Br  0.37688244  0.77668493  0.14703430    -0.03000
H674        H  0.36175817  0.84220606  0.09973559     0.09200
H675        H  0.26931556  0.85128903  0.20311448     0.07200
Br676      Br  0.25494926  0.91725681  0.15772324    -0.03400
C677        C  0.09148676  0.82876546  0.35181167    -0.10100
C678        C  0.11059886  0.82018536  0.38494257     0.06100
C679        C  0.10268216  0.84083347  0.41760195    -0.03800
C680        C  0.07610353  0.86996128  0.41651450    -0.08300
C681        C  0.05732666  0.87939480  0.38293660     0.05300
C682        C  0.06534308  0.85793050  0.35029958    -0.03300
Br683      Br  0.04210871  0.86565464  0.30222806    -0.03000
H684        H  0.09754860  0.81300048  0.32653758     0.09200
H685        H  0.07053124  0.88556773  0.44196451     0.07200
Br686      Br  0.12705095  0.82965412  0.46421080    -0.03400
C687        C  0.11708281  0.58616716  0.15443625    -0.10100
C688        C  0.11484799  0.61344986  0.18286724     0.06100
C689        C  0.08491485  0.63931144  0.18196445    -0.03800
C690        C  0.05777165  0.63715886  0.15373583    -0.08300
C691        C  0.05925849  0.60948855  0.12575506     0.05300
C692        C  0.08955098  0.58388598  0.12613333    -0.03300
Br693      Br  0.09638315  0.54735739  0.08718858    -0.03000
H694        H  0.14035416  0.56668622  0.15415318     0.09200
H695        H  0.03533643  0.65761677  0.15355817     0.07200
Br696      Br  0.08107530  0.68038232  0.21667964    -0.03400
C697        C  0.58617335  0.82874821  0.67687455    -0.10100
C698        C  0.61764158  0.80570688  0.67091963     0.06100
C699        C  0.62001022  0.78539190  0.63691781    -0.03800
C700        C  0.59143225  0.78837000  0.61006165    -0.08300
C701        C  0.56016783  0.81156251  0.61592142     0.05300
C702        C  0.55777104  0.83201840  0.64972705    -0.03300
Br703      Br  0.51494106  0.86234778  0.66161073    -0.03000
H704        H  0.58346058  0.84403873  0.70300151     0.09200
H705        H  0.59346346  0.77204788  0.58449400     0.07200
Br706      Br  0.65967509  0.75046449  0.62663966    -0.03400
C707        C  0.62212058  0.56061402  0.85661107    -0.10100
C708        C  0.61721324  0.59452382  0.87615718     0.06100
C709        C  0.58444805  0.59916338  0.89803717    -0.03800
C710        C  0.55751075  0.57044536  0.89972995    -0.08300
C711        C  0.56197315  0.53713431  0.87918638     0.05300
C712        C  0.59479491  0.53231156  0.85764749    -0.03300
Br713      Br  0.60439071  0.48703113  0.83014206    -0.03000
H714        H  0.64690728  0.55642231  0.83963941     0.09200
H715        H  0.53261404  0.57447963  0.91654005     0.07200
Br716      Br  0.57536649  0.64346122  0.92726664    -0.03400
C717        C  0.85339579  0.58331084  0.67870592    -0.10100
C718        C  0.82455672  0.61006584  0.67720283     0.06100
C719        C  0.79864841  0.60840166  0.64730817    -0.03800
C720        C  0.80166095  0.58020306  0.62011172    -0.08300
C721        C  0.83037221  0.55322071  0.62151439     0.05300
C722        C  0.85675764  0.55532534  0.65107927    -0.03300
Br723      Br  0.89635609  0.51941829  0.65688264    -0.03000
H724        H  0.87332592  0.58404683  0.70166747     0.09200
H725        H  0.78101226  0.57915097  0.59780663     0.07200
Br726      Br  0.75662182  0.64192153  0.64370164    -0.03400
C727        C  0.83921836  0.64901160  0.93171844    -0.10100
C728        C  0.83795644  0.62126859  0.90382354     0.06100
C729        C  0.86363974  0.59132803  0.90583008    -0.03800
C730        C  0.88979367  0.58948727  0.93537613    -0.08300
C731        C  0.89178959  0.61776241  0.96296658     0.05300
C732        C  0.86591115  0.64785759  0.96069961    -0.03300
Br733      Br  0.86441296  0.68802157  0.99658951    -0.03000
H734        H  0.81971450  0.67223400  0.93053633     0.09200
H735        H  0.90919004  0.56620052  0.93627039     0.07200
Br736      Br  0.86340143  0.55183015  0.86933799    -0.03400
C737        C  0.60520890  0.87601644  0.92044030    -0.10100
C738        C  0.62316922  0.86948956  0.95483266     0.06100
C739        C  0.64143840  0.83501405  0.96062796    -0.03800
C740        C  0.64298602  0.80848801  0.93166436    -0.08300
C741        C  0.62675561  0.81568129  0.89633400     0.05300
C742        C  0.60710876  0.84974407  0.89118418    -0.03300
Br743      Br  0.58116464  0.86185961  0.84557037    -0.03000
H744        H  0.59031438  0.90191402  0.91604328     0.09200
H745        H  0.65778040  0.78253192  0.93661704     0.07200
Br746      Br  0.66328310  0.82217494  0.00816577    -0.03400
C747        C  0.89791169  0.86181021  0.72417757    -0.10100
C748        C  0.89822190  0.88670523  0.69359087     0.06100
C749        C  0.86870994  0.88427870  0.66711146    -0.03800
C750        C  0.84018204  0.85724286  0.67151251    -0.08300
C751        C  0.84068228  0.83179616  0.70163110     0.05300
C752        C  0.86985760  0.83459440  0.72825044    -0.03300
Br753      Br  0.87188461  0.80326318  0.77205626    -0.03000
H754        H  0.91986694  0.86330945  0.74509108     0.09200
H755        H  0.81782569  0.85575170  0.65103704     0.07200
Br756      Br  0.86468074  0.91814128  0.62548185    -0.03400
C757        C  0.37656792  0.78025772  0.68271378    -0.10100
C758        C  0.34127074  0.79750920  0.67856479     0.06100
C759        C  0.33447658  0.81853237  0.64549133    -0.03800
C760        C  0.36223497  0.82133298  0.61766232    -0.08300
C761        C  0.39689285  0.80318557  0.62154089     0.05300
C762        C  0.40407641  0.78279521  0.65463657    -0.03300
Br763      Br  0.45180009  0.75959592  0.66368296    -0.03000
H764        H  0.38274442  0.76418494  0.70776428     0.09200
H765        H  0.35651085  0.83746839  0.59252600     0.07200
Br766      Br  0.28878848  0.84568864  0.63694017    -0.03400
C767        C  0.16337359  0.56915425  0.68441648    -0.10100
C768        C  0.13758358  0.59882541  0.68301813     0.06100
C769        C  0.11159080  0.60025345  0.65328521    -0.03800
C770        C  0.11158873  0.57204166  0.62582669    -0.08300
C771        C  0.13790241  0.54271227  0.62686073     0.05300
C772        C  0.16401343  0.54149477  0.65660634    -0.03300
Br773      Br  0.20008634  0.50186204  0.66197421    -0.03000
H774        H  0.18359374  0.56775153  0.70707204     0.09200
H775        H  0.09128296  0.57332833  0.60325412     0.07200
Br776      Br  0.07466111  0.63918576  0.64979077    -0.03400
C777        C  0.37030725  0.59663474  0.85979700    -0.10100
C778        C  0.33814653  0.59192162  0.88215987     0.06100
C779        C  0.33563787  0.55981545  0.90525532    -0.03800
C780        C  0.36485963  0.53337566  0.90540398    -0.08300
C781        C  0.39654467  0.53786700  0.88233544     0.05300
C782        C  0.39912552  0.57003445  0.85953796    -0.03300
Br783      Br  0.44230981  0.58021699  0.82899672    -0.03000
H784        H  0.37295370  0.62110178  0.84192291     0.09200
H785        H  0.36258829  0.50888185  0.92330658     0.07200
Br786      Br  0.29407740  0.55146240  0.93843510    -0.03400
C787        C  0.08272886  0.58522991  0.95899126    -0.10100
C788        C  0.05567728  0.61394996  0.96069356     0.06100
C789        C  0.05693599  0.64277965  0.93350203    -0.03800
C790        C  0.08519489  0.64291969  0.90623654    -0.08300
C791        C  0.11283979  0.61494953  0.90530432     0.05300
C792        C  0.11121272  0.58563760  0.93174310    -0.03300
Br793      Br  0.14593863  0.54462305  0.93046077    -0.03000
H794        H  0.08200770  0.56256022  0.97921091     0.09200
H795        H  0.08580366  0.66537735  0.88575894     0.07200
Br796      Br  0.01988347  0.68175169  0.93051409    -0.03400
C797        C  0.09615777  0.88117592  0.67495883    -0.10100
C798        C  0.06273681  0.87856142  0.69561265     0.06100
C799        C  0.05711312  0.84723133  0.71903054    -0.03800
C800        C  0.08472794  0.81941059  0.72162114    -0.08300
C801        C  0.11868323  0.82228931  0.70166443     0.05300
C802        C  0.12419435  0.85371284  0.67809584    -0.03300
Br803      Br  0.16851275  0.86014125  0.64822295    -0.03000
H804        H  0.10075396  0.90500709  0.65678319     0.09200
H805        H  0.07977095  0.79562848  0.73980316     0.07200
Br806      Br  0.01146142  0.84016114  0.74674028    -0.03400
C807        C  0.29170657  0.81416557  0.93309327    -0.10100
C808        C  0.31710678  0.81511405  0.90297904     0.06100
C809        C  0.34338575  0.84464181  0.90122230    -0.03800
C810        C  0.34389393  0.87236155  0.92926577    -0.08300
C811        C  0.31788971  0.87187410  0.95894804     0.05300
C812        C  0.29161591  0.84222565  0.96063332    -0.03300
Br813      Br  0.25589841  0.83728938  0.00069886    -0.03000
H814        H  0.27133899  0.79175770  0.93492231     0.09200
H815        H  0.36433030  0.89469488  0.92754011     0.07200
Br816      Br  0.38022467  0.84759851  0.86209367    -0.03400
C817        C  0.11231978  0.36385570  0.64220186    -0.10100
C818        C  0.14554889  0.38024940  0.62827966     0.06100
C819        C  0.18029276  0.36809028  0.64358843    -0.03800
C820        C  0.18089913  0.34012511  0.67121942    -0.08300
C821        C  0.14771589  0.32390400  0.68447146     0.05300
C822        C  0.11325231  0.33600713  0.66994120    -0.03300
Br823      Br  0.06690344  0.31464224  0.68686127    -0.03000
H824        H  0.08530814  0.37241129  0.63129838     0.09200
H825        H  0.20758255  0.33077897  0.68237333     0.07200
Br826      Br  0.22834746  0.38780882  0.62904414    -0.03400
C827        C  0.35214547  0.14711169  0.65289168    -0.10100
C828        C  0.35188956  0.12128715  0.68262880     0.06100
C829        C  0.38114649  0.09473015  0.68484333    -0.03800
C830        C  0.40891874  0.09350314  0.65681303    -0.08300
C831        C  0.40917963  0.11943706  0.62702672     0.05300
C832        C  0.38061077  0.14688543  0.62572970    -0.03300
Br833      Br  0.37773001  0.18399655  0.58678920    -0.03000
H834        H  0.33024349  0.16808616  0.65105148     0.09200
H835        H  0.43071084  0.07241927  0.65856563     0.07200
Br836      Br  0.38379899  0.05871773  0.72474351    -0.03400
C837        C  0.36430118  0.38027447  0.86033008    -0.10100
C838        C  0.39560876  0.37546391  0.88369424     0.06100
C839        C  0.39772400  0.34316423  0.90643247    -0.03800
C840        C  0.36904443  0.31632115  0.90516872    -0.08300
C841        C  0.33750845  0.32124640  0.88210168     0.05300
C842        C  0.33523841  0.35383406  0.85957839    -0.03300
Br843      Br  0.29468074  0.36291692  0.82528235    -0.03000
H844        H  0.36237983  0.40487477  0.84255697     0.09200
H845        H  0.37146458  0.29130802  0.92228532     0.07200
Br846      Br  0.44022783  0.33295471  0.93782010    -0.03400
C847        C  0.30126845  0.06302143  0.89835982    -0.10100
C848        C  0.32286938  0.09552722  0.90377923     0.06100
C849        C  0.34526876  0.09830494  0.93632194    -0.03800
C850        C  0.34521854  0.06912455  0.96280790    -0.08300
C851        C  0.32251285  0.03727894  0.95789836     0.05300
C852        C  0.30070255  0.03425462  0.92505604    -0.03300
Br853      Br  0.27080889  0.99076324  0.91434299    -0.03000
H854        H  0.28399978  0.06026425  0.87349390     0.09200
H855        H  0.36242204  0.07167142  0.98773923     0.07200
Br856      Br  0.37747372  0.14046564  0.94530886    -0.03400
C857        C  0.06144444  0.07846696  0.70449004    -0.10100
C858        C  0.06979288  0.04429390  0.68711591     0.06100
C859        C  0.10576383  0.03915391  0.67160670    -0.03800
C860        C  0.13323049  0.06728157  0.67552737    -0.08300
C861        C  0.12518640  0.10153434  0.69359659     0.05300
C862        C  0.08811082  0.10717277  0.70723060    -0.03300
Br863      Br  0.07107837  0.15220975  0.73161081    -0.03000
H864        H  0.03371257  0.08290387  0.71607986     0.09200
H865        H  0.16102551  0.06228574  0.66439069     0.07200
Br866      Br  0.11912657  0.99355803  0.64645653    -0.03400
C867        C  0.08670536  0.26498710  0.90865312    -0.10100
C868        C  0.11297019  0.29410296  0.90551486     0.06100
C869        C  0.11042209  0.32471360  0.93033578    -0.03800
C870        C  0.08212105  0.32572063  0.95776764    -0.08300
C871        C  0.05617738  0.29615004  0.96168291     0.05300
C872        C  0.05877120  0.26550776  0.93644888    -0.03300
Br873      Br  0.02459174  0.22386838  0.93712575    -0.03000
H874        H  0.08834585  0.24128433  0.88972800     0.09200
H875        H  0.08077040  0.34959034  0.97645967     0.07200
Br876      Br  0.14421325  0.36641614  0.92695146    -0.03400
C877        C  0.63630573  0.13322438  0.64443168    -0.10100
C878        C  0.63383645  0.11034719  0.67648186     0.06100
C879        C  0.60288736  0.08583837  0.67984930    -0.03800
C880        C  0.57465866  0.08575302  0.65231220    -0.08300
C881        C  0.57633580  0.11001773  0.62123789     0.05300
C882        C  0.60809125  0.13328048  0.61708476    -0.03300
Br883      Br  0.61552631  0.16440567  0.57373240    -0.03000
H884        H  0.65998445  0.15195691  0.64094557     0.09200
H885        H  0.55090979  0.06706422  0.65556801     0.07200
Br886      Br  0.59851279  0.05074048  0.72045028    -0.03400
C887        C  0.84696413  0.32804958  0.65088806    -0.10100
C888        C  0.82148765  0.33188104  0.68078214     0.06100
C889        C  0.79802621  0.36386312  0.68155567    -0.03800
C890        C  0.80057852  0.39100350  0.65316303    -0.08300
C891        C  0.82636237  0.38741695  0.62360058     0.05300
C892        C  0.84972355  0.35545599  0.62264901    -0.03300
Br893      Br  0.88386835  0.34629129  0.58201191    -0.03000
H894        H  0.86473564  0.30350705  0.64937573     0.09200
H895        H  0.78211707  0.41507130  0.65413717     0.07200
Br896      Br  0.75968841  0.37091209  0.71875743    -0.03400
C897        C  0.55063306  0.33848808  0.86312665    -0.10100
C898        C  0.55893941  0.37230705  0.88141427     0.06100
C899        C  0.59421530  0.37652109  0.89860745    -0.03800
C900        C  0.62091913  0.34778340  0.89600784    -0.08300
C901        C  0.61302682  0.31388826  0.87728688     0.05300
C902        C  0.57684870  0.30917784  0.86142210    -0.03300
Br903      Br  0.56132339  0.26463911  0.83537078    -0.03000
H904        H  0.52340605  0.33479143  0.85014948     0.09200
H905        H  0.64821993  0.35214895  0.90858002     0.07200
Br906      Br  0.60813022  0.42182926  0.92410784    -0.03400
C907        C  0.86637335  0.32500869  0.90317621    -0.10100
C908        C  0.83634906  0.29966538  0.90635255     0.06100
C909        C  0.83438664  0.27660460  0.93863881    -0.03800
C910        C  0.86238208  0.27874491  0.96617169    -0.08300
C911        C  0.89236020  0.30408180  0.96301667     0.05300
C912        C  0.89388703  0.32776165  0.93125775    -0.03300
Br913      Br  0.93397942  0.36280172  0.92343487    -0.03000
H914        H  0.86845327  0.34286088  0.87866072     0.09200
H915        H  0.86070893  0.26034631  0.99031772     0.07200
Br916      Br  0.79579342  0.23971691  0.94607215    -0.03400
C917        C  0.85647903  0.08765510  0.65950833    -0.10100
C918        C  0.85579218  0.11091336  0.69126925     0.06100
C919        C  0.88315343  0.10590070  0.71927825    -0.03800
C920        C  0.90942825  0.07701536  0.71605328    -0.08300
C921        C  0.90966795  0.05274822  0.68491901     0.05300
C922        C  0.88349063  0.05919102  0.65572847    -0.03300
Br923      Br  0.88151650  0.02930259  0.61098118    -0.03000
H924        H  0.83558026  0.09133699  0.63778138     0.09200
H925        H  0.92949429  0.07317207  0.73853336     0.07200
Br926      Br  0.88415078  0.13573568  0.76412855    -0.03400
C927        C  0.62236493  0.05877373  0.89077121    -0.10100
C928        C  0.64015176  0.09274365  0.90031928     0.06100
C929        C  0.65211928  0.09767557  0.93800775    -0.03800
C930        C  0.64692330  0.06892615  0.96438697    -0.08300
C931        C  0.62922549  0.03522503  0.95467079     0.05300
C932        C  0.61653223  0.03041786  0.91757155    -0.03300
Br933      Br  0.59298721  0.98480814  0.90171593    -0.03000
H934        H  0.61298792  0.05414668  0.86223243     0.09200
H935        H  0.65708166  0.07281339  0.99279092     0.07200
Br936      Br  0.67807789  0.14154698  0.95553328    -0.03400
loop_ 
_geom_bond_atom_site_label_1 
_geom_bond_atom_site_label_2 
_geom_bond_distance 
_geom_bond_site_symmetry_2 
_ccdc_geom_bond_type 
C1            N2   1.370       .  A
C1            N6   1.366       .  A
C1          C928   1.498       .  S
N2            C3   1.364       .  A
C3            N4   1.353       .  A
C3           C33   1.471       .  S
N4            C5   1.352       .  A
C5            N6   1.359       .  A
C5           C21   1.467       .  S
C7            N8   1.364       .  A
C7           N12   1.365       .  A
C7          C918   1.479       .  S
N8            C9   1.359       .  A
C9           N10   1.356       .  A
C9           C35   1.471       .  S
N10          C11   1.357       .  A
C11          N12   1.360       .  A
C11          C29   1.469       .  S
C13          N14   1.363       .  A
C13          N18   1.367       .  A
C13         C908   1.490       .  S
N14          C15   1.358       .  A
C15          N16   1.354       .  A
C15          C23   1.465       .  S
N16          C17   1.355       .  A
C17          N18   1.362       .  A
C17          C27   1.468       .  S
C19          N20   1.366       .  A
C19          N24   1.366       .  A
C19         C901   1.496       .  S
N20          C21   1.361       .  A
C21          N22   1.354       .  A
N22          C23   1.352       .  A
C23          N24   1.358       .  A
C25          N26   1.366       .  A
C25          N30   1.367       .  A
C25         C888   1.492       .  S
N26          C27   1.360       .  A
C27          N28   1.353       .  A
N28          C29   1.353       .  A
C29          N30   1.362       .  A
C31          N32   1.365       .  A
C31          N36   1.365       .  A
C31         C878   1.490       .  S
N32          C33   1.361       .  A
C33          N34   1.358       .  A
N34          C35   1.357       .  A
C35          N36   1.359       .  A
C37          N38   1.368       .  A
C37          N42   1.366       .  A
C37         C868   1.486       .  S
N38          C39   1.362       .  A
C39          N40   1.351       .  A
C39          C71   1.467       .  S
N40          C41   1.351       .  A
C41          N42   1.361       .  A
C41          C59   1.465       .  S
C43          N44   1.371       .  A
C43          N48   1.361       .  A
C43         C861   1.501       .  S
N44          C45   1.367       .  A
C45          N46   1.355       .  A
C45          C63   1.472       .  S
N46          C47   1.352       .  A
C47          N48   1.355       .  A
C47          C69   1.464       .  S
C49          N50   1.365       .  A
C49          N54   1.364       .  A
C49         C848   1.485       .  S
N50          C51   1.360       .  A
C51          N52   1.356       .  A
C51          C57   1.469       .  S
N52          C53   1.356       .  A
C53          N54   1.358       .  A
C53          C65   1.468       .  S
C55          N56   1.364       .  A
C55          N60   1.363       .  A
C55         C841   1.484       .  S
N56          C57   1.359       .  A
C57          N58   1.356       .  A
N58          C59   1.357       .  A
C59          N60   1.359       .  A
C61          N62   1.368       .  A
C61          N66   1.366       .  A
C61         C828   1.489       .  S
N62          C63   1.362       .  A
C63          N64   1.354       .  A
N64          C65   1.354       .  A
C65          N66   1.361       .  A
C67          N68   1.361       .  A
C67          N72   1.364       .  A
C67         C821   1.473       .  S
N68          C69   1.357       .  A
C69          N70   1.355       .  A
N70          C71   1.356       .  A
C71          N72   1.361       .  A
C73          N74   1.365       .  A
C73          N78   1.364       .  A
C73         C808   1.486       .  S
N74          C75   1.361       .  A
C75          N76   1.357       .  A
C75         C105   1.468       .  S
N76          C77   1.356       .  A
C77          N78   1.358       .  A
C77          C95   1.467       .  S
C79          N80   1.367       .  A
C79          N84   1.365       .  A
C79         C801   1.490       .  S
N80          C81   1.361       .  A
C81          N82   1.353       .  A
C81         C107   1.466       .  S
N82          C83   1.352       .  A
C83          N84   1.358       .  A
C83          C99   1.464       .  S
C85          N86   1.363       .  A
C85          N90   1.367       .  A
C85         C791   1.482       .  S
N86          C87   1.357       .  A
C87          N88   1.352       .  A
C87         C101   1.463       .  S
N88          C89   1.354       .  A
C89          N90   1.363       .  A
C89          C93   1.468       .  S
C91          N92   1.367       .  A
C91          N96   1.364       .  A
C91         C778   1.489       .  S
N92          C93   1.363       .  A
C93          N94   1.356       .  A
N94          C95   1.353       .  A
C95          N96   1.356       .  A
C97          N98   1.363       .  A
C97         N102   1.362       .  A
C97         C768   1.479       .  S
N98          C99   1.359       .  A
C99         N100   1.356       .  A
N100        C101   1.355       .  A
C101        N102   1.357       .  A
C103        N104   1.369       .  A
C103        N108   1.367       .  A
C103        C758   1.497       .  S
N104        C105   1.362       .  A
C105        N106   1.352       .  A
N106        C107   1.352       .  A
C107        N108   1.360       .  A
C109        N110   1.364       .  A
C109        N114   1.369       .  A
C109        C751   1.490       .  S
N110        C111   1.358       .  A
C111        N112   1.353       .  A
C111        C129   1.469       .  S
N112        C113   1.356       .  A
C113        N114   1.365       .  A
C113        C141   1.472       .  S
C115        N116   1.365       .  A
C115        N120   1.364       .  A
C115        C741   1.491       .  S
N116        C117   1.360       .  A
C117        N118   1.356       .  A
C117        C143   1.468       .  S
N118        C119   1.356       .  A
C119        N120   1.358       .  A
C119        C135   1.467       .  S
C121        N122   1.368       .  A
C121        N126   1.368       .  A
C121        C728   1.490       .  S
N122        C123   1.362       .  A
C123        N124   1.353       .  A
C123        C137   1.471       .  S
N124        C125   1.353       .  A
C125        N126   1.363       .  A
C125        C131   1.472       .  S
C127        N128   1.363       .  A
C127        N132   1.365       .  A
C127        C718   1.485       .  S
N128        C129   1.358       .  A
C129        N130   1.356       .  A
N130        C131   1.358       .  A
C131        N132   1.362       .  A
C133        N134   1.365       .  A
C133        N138   1.368       .  A
C133        C708   1.491       .  S
N134        C135   1.359       .  A
C135        N136   1.353       .  A
N136        C137   1.355       .  A
C137        N138   1.362       .  A
C139        N140   1.368       .  A
C139        N144   1.366       .  A
C139        C698   1.491       .  S
N140        C141   1.362       .  A
C141        N142   1.354       .  A
N142        C143   1.353       .  A
C143        N144   1.360       .  A
C145        N146   1.366       .  A
C145        N150   1.365       .  A
C145        C688   1.487       .  S
N146        C147   1.362       .  A
C147        N148   1.355       .  A
C147        C165   1.467       .  S
N148        C149   1.354       .  A
C149        N150   1.358       .  A
C149        C177   1.468       .  S
C151        N152   1.365       .  A
C151        N156   1.364       .  A
C151        C678   1.477       .  S
N152        C153   1.360       .  A
C153        N154   1.353       .  A
C153        C179   1.468       .  S
N154        C155   1.354       .  A
C155        N156   1.359       .  A
C155        C171   1.466       .  S
C157        N158   1.364       .  A
C157        N162   1.365       .  A
C157        C671   1.483       .  S
N158        C159   1.357       .  A
C159        N160   1.354       .  A
C159        C173   1.465       .  S
N160        C161   1.356       .  A
C161        N162   1.361       .  A
C161        C167   1.467       .  S
C163        N164   1.366       .  A
C163        N168   1.366       .  A
C163        C658   1.490       .  S
N164        C165   1.358       .  A
C165        N166   1.354       .  A
N166        C167   1.354       .  A
C167        N168   1.361       .  A
C169        N170   1.364       .  A
C169        N174   1.363       .  A
C169        C648   1.478       .  S
N170        C171   1.361       .  A
C171        N172   1.356       .  A
N172        C173   1.353       .  A
C173        N174   1.357       .  A
C175        N176   1.364       .  A
C175        N180   1.363       .  A
C175        C638   1.478       .  S
N176        C177   1.360       .  A
C177        N178   1.357       .  A
N178        C179   1.356       .  A
C179        N180   1.358       .  A
C181        N182   1.366       .  A
C181        N186   1.361       .  A
C181        C631   1.482       .  S
N182        C183   1.363       .  A
C183        N184   1.358       .  A
C183        C201   1.471       .  S
N184        C185   1.356       .  A
C185        N186   1.354       .  A
C185        C215   1.466       .  S
C187        N188   1.366       .  A
C187        N192   1.368       .  A
C187        C618   1.493       .  S
N188        C189   1.358       .  A
C189        N190   1.352       .  A
C189        C207   1.467       .  S
N190        C191   1.355       .  A
C191        N192   1.363       .  A
C191        C213   1.469       .  S
C193        N194   1.368       .  A
C193        N198   1.366       .  A
C193        C608   1.496       .  S
N194        C195   1.362       .  A
C195        N196   1.354       .  A
C195        C203   1.469       .  S
N196        C197   1.353       .  A
C197        N198   1.358       .  A
C197        C209   1.466       .  S
C199        N200   1.369       .  A
C199        N204   1.368       .  A
C199        C601   1.505       .  S
N200        C201   1.361       .  A
C201        N202   1.352       .  A
N202        C203   1.353       .  A
C203        N204   1.362       .  A
C205        N206   1.364       .  A
C205        N210   1.362       .  A
C205        C588   1.480       .  S
N206        C207   1.359       .  A
C207        N208   1.356       .  A
N208        C209   1.356       .  A
C209        N210   1.358       .  A
C211        N212   1.367       .  A
C211        N216   1.363       .  A
C211        C578   1.487       .  S
N212        C213   1.364       .  A
C213        N214   1.357       .  A
N214        C215   1.353       .  A
C215        N216   1.355       .  A
C217        N218   1.364       .  A
C217        N222   1.364       .  A
C217        C571   1.481       .  S
N218        C219   1.360       .  A
C219        N220   1.355       .  A
C219        C249   1.467       .  S
N220        C221   1.355       .  A
C221        N222   1.361       .  A
C221        C239   1.468       .  S
C223        N224   1.363       .  A
C223        N228   1.365       .  A
C223        C558   1.483       .  S
N224        C225   1.357       .  A
C225        N226   1.355       .  A
C225        C243   1.469       .  S
N226        C227   1.358       .  A
C227        N228   1.362       .  A
C227        C251   1.470       .  S
C229        N230   1.368       .  A
C229        N234   1.367       .  A
C229        C551   1.486       .  S
N230        C231   1.361       .  A
C231        N232   1.353       .  A
C231        C237   1.471       .  S
N232        C233   1.354       .  A
C233        N234   1.362       .  A
C233        C245   1.471       .  S
C235        N236   1.367       .  A
C235        N240   1.363       .  A
C235        C538   1.491       .  S
N236        C237   1.363       .  A
C237        N238   1.358       .  A
N238        C239   1.355       .  A
C239        N240   1.356       .  A
C241        N242   1.363       .  A
C241        N246   1.365       .  A
C241        C528   1.484       .  S
N242        C243   1.359       .  A
C243        N244   1.356       .  A
N244        C245   1.358       .  A
C245        N246   1.360       .  A
C247        N248   1.368       .  A
C247        N252   1.370       .  A
C247        C518   1.498       .  S
N248        C249   1.360       .  A
C249        N250   1.350       .  A
N250        C251   1.352       .  A
C251        N252   1.364       .  A
C253        N254   1.367       .  A
C253        N258   1.366       .  A
C253        C508   1.493       .  S
N254        C255   1.361       .  A
C255        N256   1.353       .  A
C255        C281   1.468       .  S
N256        C257   1.353       .  A
C257        N258   1.360       .  A
C257        C285   1.466       .  S
C259        N260   1.366       .  A
C259        N264   1.369       .  A
C259        C501   1.496       .  S
N260        C261   1.359       .  A
C261        N262   1.354       .  A
C261        C287   1.469       .  S
N262        C263   1.355       .  A
C263        N264   1.364       .  A
C263        C273   1.472       .  S
C265        N266   1.362       .  A
C265        N270   1.365       .  A
C265        C488   1.482       .  S
N266        C267   1.358       .  A
C267        N268   1.357       .  A
C267        C279   1.466       .  S
N268        C269   1.357       .  A
C269        N270   1.360       .  A
C269        C275   1.470       .  S
C271        N272   1.368       .  A
C271        N276   1.366       .  A
C271        C478   1.489       .  S
N272        C273   1.363       .  A
C273        N274   1.355       .  A
N274        C275   1.354       .  A
C275        N276   1.361       .  A
C277        N278   1.365       .  A
C277        N282   1.366       .  A
C277        C471   1.484       .  S
N278        C279   1.360       .  A
C279        N280   1.354       .  A
N280        C281   1.354       .  A
C281        N282   1.360       .  A
C283        N284   1.364       .  A
C283        N288   1.366       .  A
C283        C461   1.494       .  S
N284        C285   1.360       .  A
C285        N286   1.356       .  A
N286        C287   1.355       .  A
C287        N288   1.360       .  A
O289       Cu297   2.031       .  S
O289        C299   1.280       .  A
O290       Cu297   2.034       .  S
O290        C300   1.280       .  A
O291       Cu297   2.026       .  S
O291        C301   1.279       .  A
O292       Cu297   2.027       .  S
O292        C302   1.279       .  A
O293       Cu298   2.011       .  S
O293        C302   1.278       .  A
O294       Cu298   2.011       .  S
O294        C301   1.278       .  A
O295       Cu298   2.022       .  S
O295        C300   1.279       .  A
O296       Cu298   2.018       .  S
O296        C299   1.279       .  A
Cu297      Cu298   2.369       .  S
C299        C458   1.484       .  S
C300        C598   1.485       .  S
C301        C541   1.482       .  S
C302        C661   1.482       .  S
O303       Cu311   2.009       .  S
O303        C313   1.277       .  A
O304       Cu311   2.012       .  S
O304        C314   1.278       .  A
O305       Cu311   2.008       .  S
O305        C315   1.279       .  A
O306       Cu311   2.008       .  S
O306        C316   1.276       .  A
O307       Cu312   2.024       .  S
O307        C316   1.281       .  A
O308       Cu312   2.026       .  S
O308        C315   1.279       .  A
O309       Cu312   2.025       .  S
O309        C314   1.279       .  A
O310       Cu312   2.022       .  S
O310        C313   1.279       .  A
Cu311      Cu312   2.366       .  S
C313        C771   1.482       .  S
C314        C468   1.487       .  S
C315        C641   1.489       .  S
C316        C818   1.496       .  S
O317       Cu325   2.022       .  S
O317        C327   1.280       .  A
O318       Cu325   2.024       .  S
O318        C328   1.280       .  A
O319       Cu325   2.011       .  S
O319        C329   1.278       .  A
O320       Cu325   2.022       .  S
O320        C330   1.279       .  A
O321       Cu326   2.031       .  S
O321        C330   1.280       .  A
O322       Cu326   2.032       .  S
O322        C329   1.280       .  A
O323       Cu326   2.025       .  S
O323        C328   1.279       .  A
O324       Cu326   2.035       .  S
O324        C327   1.281       .  A
Cu325      Cu326   2.367       .  S
C327        C481   1.498       .  S
C328        C881   1.488       .  S
C329        C531   1.485       .  S
C330        C831   1.492       .  S
O331       Cu339   2.021       .  S
O331        C341   1.279       .  A
O332       Cu339   2.010       .  S
O332        C342   1.279       .  A
O333       Cu339   2.019       .  S
O333        C343   1.279       .  A
O334       Cu339   2.011       .  S
O334        C344   1.278       .  A
O335       Cu340   2.041       .  S
O335        C344   1.281       .  A
O336       Cu340   2.040       .  S
O336        C343   1.281       .  A
O337       Cu340   2.031       .  S
O337        C342   1.279       .  A
O338       Cu340   2.024       .  S
O338        C341   1.279       .  A
Cu339      Cu340   2.367       .  S
C341        C891   1.489       .  S
C342        C591   1.491       .  S
C343        C521   1.490       .  S
C344        C721   1.493       .  S
O345       Cu353   2.011       .  S
O345        C355   1.277       .  A
O346       Cu353   2.008       .  S
O346        C356   1.277       .  A
O347       Cu353   2.020       .  S
O347        C357   1.279       .  A
O348       Cu353   2.012       .  S
O348        C358   1.278       .  A
O349       Cu354   2.034       .  S
O349        C358   1.280       .  A
O350       Cu354   2.026       .  S
O350        C357   1.279       .  A
O351       Cu354   2.034       .  S
O351        C356   1.281       .  A
O352       Cu354   2.035       .  S
O352        C355   1.281       .  A
Cu353      Cu354   2.367       .  S
C355        C651   1.495       .  S
C356        C701   1.486       .  S
C357        C761   1.484       .  S
C358        C581   1.487       .  S
O359       Cu367   2.020       .  S
O359        C369   1.278       .  A
O360       Cu367   2.023       .  S
O360        C370   1.279       .  A
O361       Cu367   2.027       .  S
O361        C371   1.279       .  A
O362       Cu367   2.019       .  S
O362        C372   1.279       .  A
O363       Cu368   2.012       .  S
O363        C372   1.278       .  A
O364       Cu368   2.020       .  S
O364        C371   1.279       .  A
O365       Cu368   2.021       .  S
O365        C370   1.279       .  A
O366       Cu368   2.018       .  S
O366        C369   1.279       .  A
Cu367      Cu368   2.369       .  S
C369        C781   1.483       .  S
C370        C898   1.482       .  S
C371        C711   1.485       .  S
C372        C838   1.481       .  S
O373       Cu381   2.002   1_455  S
O373        C383   1.275       .  A
O374       Cu381   2.012   1_545  S
O374        C384   1.277       .  A
O375       Cu381   2.021   1_445  S
O375        C385   1.279       .  A
O376       Cu381   2.025       .  S
O376        C386   1.280       .  A
O377       Cu382   2.021       .  S
O377        C386   1.278       .  A
O378       Cu382   2.018   1_445  S
O378        C385   1.278       .  A
O379       Cu382   2.031   1_545  S
O379        C384   1.281       .  A
O380       Cu382   2.040   1_455  S
O380        C383   1.282       .  A
Cu381      Cu382   2.366       .  S
C383        C681   1.498       .  S
C384        C561   1.492       .  S
C385        C491   1.488       .  S
C386        C621   1.483       .  S
O387       Cu395   2.018       .  S
O387        C397   1.279       .  A
O388       Cu395   2.017   1_445  S
O388        C398   1.279       .  A
O389       Cu395   2.005   1_545  S
O389        C399   1.278       .  A
O390       Cu395   2.012   1_455  S
O390        C400   1.278       .  A
O391       Cu396   2.027   1_455  S
O391        C400   1.280       .  A
O392       Cu396   2.030   1_545  S
O392        C399   1.279       .  A
O393       Cu396   2.035   1_445  S
O393        C398   1.280       .  A
O394       Cu396   2.043       .  S
O394        C397   1.281       .  A
Cu395      Cu396   2.369       .  S
C397        C748   1.496       .  S
C398        C858   1.485       .  S
C399        C921   1.491       .  S
C400        C798   1.481       .  S
O401       Cu409   2.022       .  S
O401        C411   1.279   1_564  A
O402       Cu409   2.019       .  S
O402        C412   1.279       .  A
O403       Cu409   2.035   1_556  S
O403        C413   1.281       .  A
O404       Cu409   2.036       .  S
O404        C414   1.281   1_565  A
O405       Cu410   2.018       .  S
O405        C414   1.278   1_565  A
O406       Cu410   2.013       .  S
O406        C413   1.278   1_554  A
O407       Cu410   2.012       .  S
O407        C412   1.278       .  A
O408       Cu410   2.014   1_556  S
O408        C411   1.278   1_565  A
Cu409      Cu410   2.368       .  S
C411        C851   1.481       .  S
C412        C668   1.484       .  S
C413        C811   1.489       .  S
C414        C498   1.491       .  S
O415       Cu423   2.020   1_455  S
O415        C425   1.279       .  A
O416       Cu423   2.019       .  S
O416        C426   1.279   1_554  A
O417       Cu423   2.025   1_455  S
O417        C427   1.279   1_554  A
O418       Cu423   2.013       .  S
O418        C428   1.279       .  A
O419       Cu424   2.036       .  S
O419        C428   1.280       .  A
O420       Cu424   2.028   1_455  S
O420        C427   1.280   1_554  A
O421       Cu424   2.027       .  S
O421        C426   1.279   1_554  A
O422       Cu424   2.028   1_455  S
O422        C425   1.280       .  A
Cu423      Cu424   2.366       .  S
C425        C511   1.486       .  S
C426        C911   1.489       .  S
C427        C871   1.497       .  S
C428        C568   1.495       .  S
O429       Cu437   2.000       .  S
O429        C439   1.277       .  A
O430       Cu437   2.012   1_556  S
O430        C440   1.277   1_565  A
O431       Cu437   2.015       .  S
O431        C441   1.279   1_565  A
O432       Cu437   2.018   1_556  S
O432        C442   1.279       .  A
O433       Cu438   2.020   1_556  S
O433        C442   1.278       .  A
O434       Cu438   2.035       .  S
O434        C441   1.280   1_565  A
O435       Cu438   2.038   1_556  S
O435        C440   1.281   1_565  A
O436       Cu438   2.039       .  S
O436        C439   1.281       .  A
Cu437      Cu438   2.370       .  S
C439        C628   1.487       .  S
C440        C931   1.483       .  S
C441        C548   1.495       .  S
C442        C738   1.479       .  S
O443       Cu451   2.022       .  S
O443        C453   1.279   1_554  A
O444       Cu451   2.013   1_455  S
O444        C454   1.278       .  A
O445       Cu451   2.017   1_455  S
O445        C455   1.279   1_554  A
O446       Cu451   2.018       .  S
O446        C456   1.279       .  A
O447       Cu452   2.031       .  S
O447        C456   1.279       .  A
O448       Cu452   2.020   1_455  S
O448        C455   1.279   1_554  A
O449       Cu452   2.041   1_455  S
O449        C454   1.281       .  A
O450       Cu452   2.042       .  S
O450        C453   1.282   1_554  A
Cu451      Cu452   2.367       .  S
C453        C731   1.501       .  S
C454        C691   1.492       .  S
C455        C788   1.488       .  S
C456        C611   1.484       .  S
C457        C458   1.404       .  A
C457        C462   1.407       .  A
C457        H464   1.083       .  S
C458        C459   1.408       .  A
C459        C460   1.401       .  A
C459       Br466   1.920       .  S
C460        C461   1.408       .  A
C460        H465   1.082       .  S
C461        C462   1.417       .  A
C462       Br463   1.920       .  S
C467        C468   1.405       .  A
C467        C472   1.400       .  A
C467        H474   1.083       .  S
C468        C469   1.414       .  A
C469        C470   1.406       .  A
C469       Br476   1.920       .  S
C470        C471   1.405       .  A
C470        H475   1.083       .  S
C471        C472   1.411       .  A
C472       Br473   1.920       .  S
C477        C478   1.404       .  A
C477        C482   1.407       .  A
C477        H484   1.084       .  S
C478        C479   1.410       .  A
C479        C480   1.405       .  A
C479       Br486   1.919       .  S
C480        C481   1.409       .  A
C480        H485   1.083       .  S
C481        C482   1.417       .  A
C482       Br483   1.920       .  S
C487        C488   1.403       .  A
C487        C492   1.402       .  A
C487        H494   1.084       .  S
C488        C489   1.409       .  A
C489        C490   1.403       .  A
C489       Br496   1.919       .  S
C490        C491   1.407       .  A
C490        H495   1.084       .  S
C491        C492   1.414       .  A
C492       Br493   1.920       .  S
C497        C498   1.407       .  A
C497        C502   1.409       .  A
C497        H504   1.083       .  S
C498        C499   1.412       .  A
C499        C500   1.402       .  A
C499       Br506   1.921       .  S
C500        C501   1.407       .  A
C500        H505   1.083       .  S
C501        C502   1.414       .  A
C502       Br503   1.918       .  S
C507        C508   1.407       .  A
C507        C512   1.405       .  A
C507        H514   1.083       .  S
C508        C509   1.416       .  A
C509        C510   1.404       .  A
C509       Br516   1.921       .  S
C510        C511   1.404       .  A
C510        H515   1.084       .  S
C511        C512   1.410       .  A
C512       Br513   1.920       .  S
C517        C518   1.408       .  A
C517        C522   1.403       .  A
C517        H524   1.082       .  S
C518        C519   1.416       .  A
C519        C520   1.409       .  A
C519       Br526   1.919       .  S
C520        C521   1.406       .  A
C520        H525   1.082       .  S
C521        C522   1.410       .  A
C522       Br523   1.921       .  S
C527        C528   1.407       .  A
C527        C532   1.407       .  A
C527        H534   1.083       .  S
C528        C529   1.412       .  A
C529        C530   1.399       .  A
C529       Br536   1.921       .  S
C530        C531   1.403       .  A
C530        H535   1.084       .  S
C531        C532   1.412       .  A
C532       Br533   1.919       .  S
C537        C538   1.407       .  A
C537        C542   1.398       .  A
C537        H544   1.083       .  S
C538        C539   1.414       .  A
C539        C540   1.407       .  A
C539       Br546   1.919       .  S
C540        C541   1.406       .  A
C540        H545   1.083       .  S
C541        C542   1.408       .  A
C542       Br543   1.921       .  S
C547        C548   1.406       .  A
C547        C552   1.400       .  A
C547        H554   1.084       .  S
C548        C549   1.418       .  A
C549        C550   1.410       .  A
C549       Br556   1.920       .  S
C550        C551   1.405       .  A
C550        H555   1.084       .  S
C551        C552   1.409       .  A
C552       Br553   1.920       .  S
C557        C558   1.402       .  A
C557        C562   1.400       .  A
C557        H564   1.084       .  S
C558        C559   1.408       .  A
C559        C560   1.406       .  A
C559       Br566   1.918       .  S
C560        C561   1.409       .  A
C560        H565   1.084       .  S
C561        C562   1.417       .  A
C562       Br563   1.922       .  S
C567        C568   1.408       .  A
C567        C572   1.399       .  A
C567        H574   1.082       .  S
C568        C569   1.418       .  A
C569        C570   1.408       .  A
C569       Br576   1.920       .  S
C570        C571   1.403       .  A
C570        H575   1.082       .  S
C571        C572   1.407       .  A
C572       Br573   1.920       .  S
C577        C578   1.403       .  A
C577        C582   1.395       .  A
C577        H584   1.083       .  S
C578        C579   1.412       .  A
C579        C580   1.410       .  A
C579       Br586   1.918       .  S
C580        C581   1.409       .  A
C580        H585   1.083       .  S
C581        C582   1.410       .  A
C582       Br583   1.916       .  S
C587        C588   1.404       .  A
C587        C592   1.407       .  A
C587        H594   1.077       .  S
C588        C589   1.408       .  A
C589        C590   1.399       .  A
C589       Br596   1.921       .  S
C590        C591   1.407       .  A
C590        H595   1.077       .  S
C591        C592   1.416       .  A
C592       Br593   1.919       .  S
C597        C598   1.403       .  A
C597        C602   1.409       .  A
C597        H604   1.084       .  S
C598        C599   1.406       .  A
C599        C600   1.403       .  A
C599       Br606   1.920       .  S
C600        C601   1.411       .  A
C600        H605   1.083       .  S
C601        C602   1.422       .  A
C602       Br603   1.921       .  S
C607        C608   1.409       .  A
C607        C612   1.401       .  A
C607        H614   1.083       .  S
C608        C609   1.417       .  A
C609        C610   1.407       .  A
C609       Br616   1.920       .  S
C610        C611   1.404       .  A
C610        H615   1.084       .  S
C611        C612   1.408       .  A
C612       Br613   1.920       .  S
C617        C618   1.408       .  A
C617        C622   1.400       .  A
C617        H624   1.082       .  S
C618        C619   1.415       .  A
C619        C620   1.407       .  A
C619       Br626   1.919       .  S
C620        C621   1.405       .  A
C620        H625   1.082       .  S
C621        C622   1.408       .  A
C622       Br623   1.918       .  S
C627        C628   1.403       .  A
C627        C632   1.395       .  A
C627        H634   1.084       .  S
C628        C629   1.414       .  A
C629        C630   1.408       .  A
C629       Br636   1.918       .  S
C630        C631   1.405       .  A
C630        H635   1.083       .  S
C631        C632   1.411       .  A
C632       Br633   1.923       .  S
C637        C638   1.403       .  A
C637        C642   1.406       .  A
C637        H644   1.083       .  S
C638        C639   1.408       .  A
C639        C640   1.397       .  A
C639       Br646   1.921       .  S
C640        C641   1.406       .  A
C640        H645   1.083       .  S
C641        C642   1.417       .  A
C642       Br643   1.920       .  S
C647        C648   1.399       .  A
C647        C652   1.397       .  A
C647        H654   1.085       .  S
C648        C649   1.407       .  A
C649        C650   1.407       .  A
C649       Br656   1.917       .  S
C650        C651   1.411       .  A
C650        H655   1.084       .  S
C651        C652   1.419       .  A
C652       Br653   1.920       .  S
C657        C658   1.407       .  A
C657        C662   1.399       .  A
C657        H664   1.083       .  S
C658        C659   1.414       .  A
C659        C660   1.406       .  A
C659       Br666   1.919       .  S
C660        C661   1.405       .  A
C660        H665   1.084       .  S
C661        C662   1.409       .  A
C662       Br663   1.921       .  S
C667        C668   1.407       .  A
C667        C672   1.405       .  A
C667        H674   1.083       .  S
C668        C669   1.412       .  A
C669        C670   1.399       .  A
C669       Br676   1.921       .  S
C670        C671   1.404       .  A
C670        H675   1.083       .  S
C671        C672   1.410       .  A
C672       Br673   1.919       .  S
C677        C678   1.397       .  A
C677        C682   1.398       .  A
C677        H684   1.084       .  S
C678        C679   1.406       .  A
C679        C680   1.407       .  A
C679       Br686   1.917       .  S
C680        C681   1.412       .  A
C680        H685   1.082       .  S
C681        C682   1.421       .  A
C682       Br683   1.923       .  S
C687        C688   1.407       .  A
C687        C692   1.410       .  A
C687        H694   1.083       .  S
C688        C689   1.412       .  A
C689        C690   1.398       .  A
C689       Br696   1.922       .  S
C690        C691   1.404       .  A
C690        H695   1.083       .  S
C691        C692   1.415       .  A
C692       Br693   1.919       .  S
C697        C698   1.407       .  A
C697        C702   1.406       .  A
C697        H704   1.083       .  S
C698        C699   1.414       .  A
C699        C700   1.402       .  A
C699       Br706   1.921       .  S
C700        C701   1.404       .  A
C700        H705   1.084       .  S
C701        C702   1.411       .  A
C702       Br703   1.919       .  S
C707        C708   1.407       .  A
C707        C712   1.403       .  A
C707        H714   1.081       .  S
C708        C709   1.415       .  A
C709        C710   1.405       .  A
C709       Br716   1.920       .  S
C710        C711   1.405       .  A
C710        H715   1.081       .  S
C711        C712   1.410       .  A
C712       Br713   1.920       .  S
C717        C718   1.404       .  A
C717        C722   1.407       .  A
C717        H724   1.084       .  S
C718        C719   1.412       .  A
C719        C720   1.401       .  A
C719       Br726   1.922       .  S
C720        C721   1.406       .  A
C720        H725   1.084       .  S
C721        C722   1.415       .  A
C722       Br723   1.918       .  S
C727        C728   1.403       .  A
C727        C732   1.405       .  A
C727        H734   1.083       .  S
C728        C729   1.409       .  A
C729        C730   1.408       .  A
C729       Br736   1.917       .  S
C730        C731   1.410       .  A
C730        H735   1.082       .  S
C731        C732   1.418       .  A
C732       Br733   1.921       .  S
C737        C738   1.403       .  A
C737        C742   1.403       .  A
C737        H744   1.077       .  S
C738        C739   1.407       .  A
C739        C740   1.401       .  A
C739       Br746   1.920   1_556  S
C740        C741   1.409       .  A
C740        H745   1.080       .  S
C741        C742   1.415       .  A
C742       Br743   1.920       .  S
C747        C748   1.406       .  A
C747        C752   1.401       .  A
C747        H754   1.082       .  S
C748        C749   1.416       .  A
C749        C750   1.410       .  A
C749       Br756   1.918       .  S
C750        C751   1.406       .  A
C750        H755   1.082       .  S
C751        C752   1.412       .  A
C752       Br753   1.921       .  S
C757        C758   1.409       .  A
C757        C762   1.404       .  A
C757        H764   1.084       .  S
C758        C759   1.418       .  A
C759        C760   1.405       .  A
C759       Br766   1.920       .  S
C760        C761   1.402       .  A
C760        H765   1.084       .  S
C761        C762   1.409       .  A
C762       Br763   1.920       .  S
C767        C768   1.403       .  A
C767        C772   1.398       .  A
C767        H774   1.084       .  S
C768        C769   1.409       .  A
C769        C770   1.403       .  A
C769       Br776   1.918       .  S
C770        C771   1.406       .  A
C770        H775   1.084       .  S
C771        C772   1.412       .  A
C772       Br773   1.921       .  S
C777        C778   1.407       .  A
C777        C782   1.399       .  A
C777        H784   1.084       .  S
C778        C779   1.413       .  A
C779        C780   1.406       .  A
C779       Br786   1.919       .  S
C780        C781   1.406       .  A
C780        H785   1.085       .  S
C781        C782   1.409       .  A
C782       Br783   1.920       .  S
C787        C788   1.409       .  A
C787        C792   1.405       .  A
C787        H794   1.083       .  S
C788        C789   1.413       .  A
C789        C790   1.400       .  A
C789       Br796   1.921       .  S
C790        C791   1.403       .  A
C790        H795   1.084       .  S
C791        C792   1.408       .  A
C792       Br793   1.918       .  S
C797        C798   1.404       .  A
C797        C802   1.405       .  A
C797        H804   1.081       .  S
C798        C799   1.409       .  A
C799        C800   1.401       .  A
C799       Br806   1.921       .  S
C800        C801   1.408       .  A
C800        H805   1.082       .  S
C801        C802   1.414       .  A
C802       Br803   1.919       .  S
C807        C808   1.405       .  A
C807        C812   1.402       .  A
C807        H814   1.082       .  S
C808        C809   1.411       .  A
C809        C810   1.406       .  A
C809       Br816   1.919       .  S
C810        C811   1.407       .  A
C810        H815   1.081       .  S
C811        C812   1.414       .  A
C812       Br813   1.921   1_556  S
C817        C818   1.411       .  A
C817        C822   1.402       .  A
C817        H824   1.083       .  S
C818        C819   1.422       .  A
C819        C820   1.402       .  A
C819       Br826   1.923       .  S
C820        C821   1.399       .  A
C820        H825   1.084       .  S
C821        C822   1.402       .  A
C822       Br823   1.917       .  S
C827        C828   1.404       .  A
C827        C832   1.403       .  A
C827        H834   1.084       .  S
C828        C829   1.412       .  A
C829        C830   1.407       .  A
C829       Br836   1.918       .  S
C830        C831   1.408       .  A
C830        H835   1.084       .  S
C831        C832   1.414       .  A
C832       Br833   1.920       .  S
C837        C838   1.404       .  A
C837        C842   1.401       .  A
C837        H844   1.084       .  S
C838        C839   1.410       .  A
C839        C840   1.401       .  A
C839       Br846   1.919       .  S
C840        C841   1.404       .  A
C840        H845   1.084       .  S
C841        C842   1.415       .  A
C842       Br843   1.922       .  S
C847        C848   1.405       .  A
C847        C852   1.399       .  A
C847        H854   1.084       .  S
C848        C849   1.412       .  A
C849        C850   1.405       .  A
C849       Br856   1.919       .  S
C850        C851   1.406       .  A
C850        H855   1.084       .  S
C851        C852   1.410       .  A
C852       Br853   1.920   1_545  S
C857        C858   1.399       .  A
C857        C862   1.401       .  A
C857        H864   1.084       .  S
C858        C859   1.409       .  A
C859        C860   1.409       .  A
C859       Br866   1.917   1_545  S
C860        C861   1.410       .  A
C860        H865   1.083       .  S
C861        C862   1.423       .  A
C862       Br863   1.925       .  S
C867        C868   1.403       .  A
C867        C872   1.405       .  A
C867        H874   1.083       .  S
C868        C869   1.408       .  A
C869        C870   1.405       .  A
C869       Br876   1.918       .  S
C870        C871   1.410       .  A
C870        H875   1.082       .  S
C871        C872   1.418       .  A
C872       Br873   1.921       .  S
C877        C878   1.406       .  A
C877        C882   1.401       .  A
C877        H884   1.084       .  S
C878        C879   1.413       .  A
C879        C880   1.406       .  A
C879       Br886   1.919       .  S
C880        C881   1.407       .  A
C880        H885   1.084       .  S
C881        C882   1.411       .  A
C882       Br883   1.920       .  S
C887        C888   1.407       .  A
C887        C892   1.406       .  A
C887        H894   1.082       .  S
C888        C889   1.415       .  A
C889        C890   1.403       .  A
C889       Br896   1.921       .  S
C890        C891   1.404       .  A
C890        H895   1.083       .  S
C891        C892   1.413       .  A
C892       Br893   1.920       .  S
C897        C898   1.402       .  A
C897        C902   1.404       .  A
C897        H904   1.084       .  S
C898        C899   1.408       .  A
C899        C900   1.403       .  A
C899       Br906   1.919       .  S
C900        C901   1.409       .  A
C900        H905   1.083       .  S
C901        C902   1.419       .  A
C902       Br903   1.921       .  S
C907        C908   1.406       .  A
C907        C912   1.405       .  A
C907        H914   1.083       .  S
C908        C909   1.416       .  A
C909        C910   1.402       .  A
C909       Br916   1.922       .  S
C910        C911   1.404       .  A
C910        H915   1.084       .  S
C911        C912   1.413       .  A
C912       Br913   1.919       .  S
C917        C918   1.403       .  A
C917        C922   1.406       .  A
C917        H924   1.083       .  S
C918        C919   1.408       .  A
C919        C920   1.398       .  A
C919       Br926   1.920       .  S
C920        C921   1.407       .  A
C920        H925   1.083       .  S
C921        C922   1.417       .  A
C922       Br923   1.919       .  S
C927        C928   1.409       .  A
C927        C932   1.406       .  A
C927        H934   1.083       .  S
C928        C929   1.420       .  A
C929        C930   1.403       .  A
C929       Br936   1.922       .  S
C930        C931   1.401       .  A
C930        H935   1.084       .  S
C931        C932   1.408       .  A
C932       Br933   1.916   1_545  S
