geometry optimzed in LAMMPS
_audit_creation_date              2020-11-30 
_audit_creation_method            'lammps2cif' 
_symmetry_space_group_name_H-M    'P1' 
_symmetry_Int_Tables_number       1 
_symmetry_cell_setting            triclinic 
loop_ 
_symmetry_equiv_pos_as_xyz 
  x,y,z 
_cell_length_a                    28.65908691 
_cell_length_b                    39.605672992292156 
_cell_length_c                    26.21428159504676 
_cell_angle_alpha                 90.11680028103241 
_cell_angle_beta                  89.6652236799892 
_cell_angle_gamma                 90.48969855606899 
loop_ 
_atom_site_label 
_atom_site_type_symbol 
_atom_site_fract_x 
_atom_site_fract_y 
_atom_site_fract_z 
_atom_site_charge 
C1          C  0.27420768  0.55207230  0.74008033     0.79700
N2          N  0.23525004  0.53704874  0.75954446    -0.78600
C3          C  0.21593558  0.54881541  0.80341120     0.82200
N4          N  0.23571767  0.57542946  0.82786564    -0.78500
C5          C  0.27438614  0.59082006  0.80847164     0.82300
N6          N  0.29347297  0.57912550  0.76432299    -0.80200
C7          C  0.56632501  0.41385454  0.12340962     0.79700
N8          N  0.54948025  0.38645389  0.09775945    -0.78600
C9          C  0.57252205  0.37418306  0.05644875     0.82200
N10         N  0.61223962  0.38966640  0.04079507    -0.78500
C11         C  0.62991850  0.41664656  0.06595356     0.82300
N12         N  0.60703062  0.42871656  0.10773810    -0.80200
Zn13       Zn  0.40478032  0.49435497  0.37234761     1.49700
Zn14       Zn  0.44128235  0.51858146  0.48079866     1.49400
Zn15       Zn  0.37808131  0.45195314  0.47283509     1.49100
Zn16       Zn  0.48234760  0.45152821  0.42917161     1.49500
O17         O  0.42666591  0.47908356  0.43887139    -1.84600
O18         O  0.40753611  0.54453789  0.36611223    -0.75200
O19         O  0.39684138  0.52199401  0.54024862    -0.75100
O20         O  0.32091045  0.44916779  0.42925703    -0.74600
O21         O  0.43553208  0.56231496  0.44046807    -0.75300
O22         O  0.33809335  0.48175418  0.36269961    -0.74900
O23         O  0.35624973  0.47390633  0.53857017    -0.75400
O24         O  0.47407419  0.40564366  0.46250425    -0.74800
O25         O  0.50681372  0.51493880  0.50813089    -0.75600
O26         O  0.40047078  0.40463668  0.48805585    -0.75000
O27         O  0.53786265  0.47299703  0.46346646    -0.75400
O28         O  0.49698510  0.44539813  0.35373242    -0.75400
O29         O  0.44219218  0.47453309  0.31400971    -0.75100
C30         C  0.42051044  0.56820020  0.39569128     0.76600
C31         C  0.36574656  0.50237580  0.55883760     0.77100
C32         C  0.30961906  0.46329323  0.38761452     0.76100
C33         C  0.43987761  0.39025413  0.48362720     0.76500
C34         C  0.54169215  0.49681739  0.49590088     0.77600
C35         C  0.47807055  0.45580495  0.31276278     0.76700
C36         C  0.38249963  0.72567225  0.00004178     0.79700
N37         N  0.36734985  0.69794088  0.97401018    -0.78600
C38         C  0.35243185  0.70100772  0.92525155     0.82200
N39         N  0.35218013  0.73173175  0.90293286    -0.78500
C40         C  0.36845521  0.75953689  0.92751365     0.82300
N41         N  0.38335289  0.75630609  0.97643632    -0.80200
C42         C  0.41466316  0.69807776  0.29798840     0.79700
N43         N  0.42040892  0.72827794  0.32194291    -0.78600
C44         C  0.41989288  0.75740749  0.29465649     0.82200
N45         N  0.41378522  0.75620585  0.24327902    -0.78500
C46         C  0.40841994  0.72606261  0.21903326     0.82300
N47         N  0.40867909  0.69704141  0.24660074    -0.80200
C48         C  0.30274352  0.91535311  0.75197816     0.79700
N49         N  0.25943971  0.92488358  0.76750080    -0.78600
C50         C  0.24029294  0.91132284  0.81047459     0.82200
N51         N  0.26406673  0.88777187  0.83715448    -0.78500
C52         C  0.30727167  0.87807294  0.82178380     0.82300
N53         N  0.32651951  0.89212306  0.77930446    -0.80200
C54         C  0.58620788  0.04162076  0.12616064     0.79700
N55         N  0.56833868  0.06645956  0.09633620    -0.78600
C56         C  0.58924956  0.07536033  0.05146745     0.82200
N57         N  0.62824513  0.05865496  0.03707176    -0.78500
C58         C  0.64723389  0.03455320  0.06684771     0.82300
N59         N  0.62620890  0.02625603  0.11147779    -0.80200
Zn60       Zn  0.39713334  0.00470744  0.47404515     1.49700
Zn61       Zn  0.42152245  0.96479512  0.37113769     1.49400
Zn62       Zn  0.50238842  0.00420566  0.43262551     1.49100
Zn63       Zn  0.45773597  0.93598240  0.47791322     1.49500
O64         O  0.44465800  0.97736671  0.43906372    -1.84600
O65         O  0.33890263  0.00977953  0.43058324    -0.75200
O66         O  0.46316499  0.98407046  0.31638780    -0.75100
O67         O  0.49459918  0.05104367  0.46214692    -0.74600
O68         O  0.35600301  0.98197176  0.35909959    -0.75300
O69         O  0.42173204  0.05149442  0.49122479    -0.74900
O70         O  0.52014455  0.01009080  0.35887546    -0.75400
O71         O  0.52515035  0.93489916  0.50081993    -0.74800
O72         O  0.42128043  0.91423722  0.36122695    -0.75600
O73         O  0.55637368  0.98187045  0.46856065    -0.75000
O74         O  0.44637598  0.89370064  0.43490629    -0.75400
O75         O  0.41743611  0.93417708  0.54161040    -0.75400
O76         O  0.37817378  0.98255124  0.54044552    -0.75100
C77         C  0.32798130  0.99936743  0.38613089     0.76600
C78         C  0.50095703  0.00114287  0.31727746     0.77100
C79         C  0.46101375  0.06613071  0.48428703     0.76100
C80         C  0.55997167  0.95459737  0.49388003     0.76500
C81         C  0.43223780  0.88935702  0.38928092     0.77600
C82         C  0.38860115  0.95472556  0.56163132     0.76700
C83         C  0.47601960  0.25903426  0.57449237     0.79700
N84         N  0.48466931  0.25868248  0.62531640    -0.78600
C85         C  0.49237053  0.22916389  0.64972510     0.82200
N86         N  0.49153558  0.19976347  0.62314050    -0.78500
C87         C  0.48356747  0.19968429  0.57215242     0.82300
N88         N  0.47552584  0.22944026  0.54795431    -0.80200
C89         C  0.51162359  0.22564845  0.86804687     0.79700
N90         N  0.51428920  0.25443901  0.89611320    -0.78600
C91         C  0.52283040  0.25288369  0.94685856     0.82200
N92         N  0.52949399  0.22247864  0.96933968    -0.78500
C93         C  0.52655344  0.19362660  0.94157435     0.82300
N94         N  0.51818187  0.19528292  0.89077545    -0.80200
C95         C  0.06825390  0.41406264  0.25775802     0.79700
N96         N  0.05529413  0.38582471  0.28370707    -0.78600
C97         C  0.07885370  0.37655860  0.32608751     0.82200
N98         N  0.11578864  0.39526769  0.34196429    -0.78500
C99         C  0.12920992  0.42338472  0.31620076     0.82300
N100        N  0.10558659  0.43265109  0.27370369    -0.80200
C101        C  0.79028381  0.52454801  0.62733112     0.79700
N102        N  0.81442973  0.54694253  0.59766172    -0.78600
C103        C  0.79573173  0.55898422  0.55382506     0.82200
N104        N  0.75235756  0.54830767  0.54068533    -0.78500
C105        C  0.72780777  0.52600248  0.56965203     0.82300
N106        N  0.74674988  0.51433211  0.61350904    -0.80200
Zn107      Zn  0.95378565  0.45780044  0.87425348     1.49700
Zn108      Zn  0.87683822  0.49897395  0.93614627     1.49400
Zn109      Zn  0.91509255  0.42841851  0.98011277     1.49100
Zn110      Zn  0.97954537  0.49487021  0.97909086     1.49500
O111        O  0.93126431  0.46976977  0.94251453    -1.84600
O112        O  0.91048000  0.47473935  0.81995710    -0.75200
O113        O  0.82249078  0.47894733  0.97395052    -0.75100
O114        O  0.92751338  0.38659092  0.93701976    -0.74600
O115        O  0.85605246  0.50222766  0.86327594    -0.75300
O116        O  0.95801389  0.40737957  0.86522160    -0.74900
O117        O  0.84685652  0.42861497  0.00006050    -0.75400
O118        O  0.99801263  0.47116510  0.04313081    -0.74800
O119        O  0.88892939  0.54634929  0.96335326    -0.75600
O120        O  0.95232017  0.42540743  0.04547473    -0.75000
O121        O  0.95728461  0.54072732  0.00081124    -0.75400
O122        O  0.03622041  0.50232752  0.93442698    -0.75400
O123        O  0.01689520  0.47825511  0.86062978    -0.75100
C124        C  0.87291546  0.49162592  0.82128283     0.76600
C125        C  0.81508199  0.45071570  0.99570888     0.77100
C126        C  0.94515963  0.38248971  0.89268813     0.76100
C127        C  0.98363628  0.44437818  0.06497163     0.76500
C128        C  0.92192463  0.55851684  0.99027844     0.77600
C129        C  0.04528757  0.49505104  0.88808929     0.76700
C130        C  0.96666504  0.19148760  0.79859495     0.79700
N131        N  0.97354055  0.19247646  0.74733804    -0.78600
C132        C  0.97614138  0.22241568  0.72249687     0.82200
N133        N  0.97138102  0.25165717  0.74886774    -0.78500
C134        C  0.96399632  0.25107931  0.80000515     0.82300
N135        N  0.96187207  0.22097012  0.82502667    -0.80200
C136        C  0.01443636  0.22360805  0.50687860     0.79700
N137        N  0.02494797  0.25278408  0.48206752    -0.78600
C138        C  0.03745289  0.25209044  0.43217011     0.82200
N139        N  0.04104596  0.22190150  0.40769502    -0.78500
C140        C  0.03042837  0.19245075  0.43205549     0.82300
N141        N  0.01658775  0.19380098  0.48145279    -0.80200
C142        C  0.07969786  0.03070936  0.25707270     0.79700
N143        N  0.05895512  0.05540534  0.28494494    -0.78600
C144        C  0.08072537  0.06911511  0.32602675     0.82200
N145        N  0.12342615  0.05762948  0.33941136    -0.78500
C146        C  0.14413321  0.03244411  0.31276982     0.82300
N147        N  0.12264702  0.01935638  0.27086903    -0.80200
C148        C  0.79733145  0.90027986  0.63000029     0.79700
N149        N  0.75882982  0.91695850  0.61364899    -0.78600
C150        C  0.73587152  0.90656779  0.57109570     0.82200
N151        N  0.75139663  0.87907309  0.54542806    -0.78500
C152        C  0.78957853  0.86216492  0.56118647     0.82300
N153        N  0.81260839  0.87290246  0.60344015    -0.80200
Zn154      Zn  0.99123550  0.94560624  0.97597658     1.49700
Zn155      Zn  0.92711336  0.01146046  0.97841069     1.49400
Zn156      Zn  0.96503258  0.98230811  0.87091569     1.49100
Zn157      Zn  0.88716963  0.94129980  0.93295397     1.49500
O158        O  0.94266346  0.97039197  0.93961349    -1.84600
O159        O  0.00921690  0.96872010  0.04153899    -0.75200
O160        O  0.93976225  0.05350969  0.93543883    -0.75100
O161        O  0.03111737  0.96595096  0.85963202    -0.74600
O162        O  0.96523837  0.01473920  0.04398079    -0.75300
O163        O  0.04932959  0.94115066  0.93295994    -0.74900
O164        O  0.96381520  0.03295538  0.86092813    -0.75400
O165        O  0.86912786  0.93433279  0.85938715    -0.74800
O166        O  0.85846509  0.01042540  0.99873792    -0.75600
O167        O  0.92481559  0.96115280  0.81592656    -0.75000
O168        O  0.83227547  0.96103182  0.96997559    -0.75400
O169        O  0.89744093  0.89552366  0.96347729    -0.75400
O170        O  0.96910284  0.89879386  0.99495476    -0.75100
C171        C  0.99600193  0.99566974  0.06352468     0.76600
C172        C  0.95362678  0.05793068  0.88954228     0.77100
C173        C  0.05973265  0.95011929  0.88768195     0.76100
C174        C  0.88776106  0.94318075  0.81723376     0.76500
C175        C  0.82568797  0.98868041  0.99355666     0.77600
C176        C  0.93119728  0.88256107  0.98762134     0.76700
C177        C  0.86217401  0.71528693  0.37397350     0.79700
N178        N  0.85265329  0.74353299  0.40131678    -0.78600
C179        C  0.83968624  0.74105480  0.45103002     0.82200
N180        N  0.83542896  0.71011374  0.47292068    -0.78500
C181        C  0.84506626  0.68162977  0.44596237     0.82300
N182        N  0.85857073  0.68442894  0.39633077    -0.80200
C183        C  0.91393957  0.69171854  0.08189948     0.79700
N184        N  0.91794709  0.72172284  0.05691982    -0.78600
C185        C  0.91527385  0.75132828  0.08335824     0.82200
N186        N  0.90866324  0.75059442  0.13470633    -0.78500
C187        C  0.90445679  0.72072615  0.15954954     0.82300
N188        N  0.90683840  0.69136870  0.13309191    -0.80200
C189        C  0.93037719  0.72104985  0.25023936    -0.02300
C190        C  0.89396544  0.72016882  0.21443839     0.07300
C191        C  0.84719290  0.71875857  0.23103296    -0.02400
C192        C  0.83680296  0.71795535  0.28347619    -0.02400
C193        C  0.87322606  0.71794696  0.31930381     0.07500
C194        C  0.91996058  0.72020122  0.30276656    -0.02600
Br195      Br  0.96933410  0.72300783  0.35225001    -0.01200
Br196      Br  0.99433687  0.72276062  0.22707696    -0.01300
Br197      Br  0.77269216  0.71761606  0.30636617    -0.01200
Br198      Br  0.79745521  0.71759191  0.18175055    -0.01200
C199        C  0.95990366  0.82356780  0.00027196    -0.02300
C200        C  0.92569722  0.84829194  0.00927638     0.07300
C201        C  0.88718688  0.84073807  0.04119243    -0.02400
C202        C  0.88321974  0.80878390  0.06435111    -0.02400
C203        C  0.91825673  0.78430818  0.05667219     0.07500
C204        C  0.95677180  0.79200095  0.02478877    -0.02600
Br205      Br  0.00752368  0.76063721  0.01788695    -0.01200
Br206      Br  0.01020743  0.83240974  0.95262976    -0.01300
Br207      Br  0.82904241  0.79881999  0.10606332    -0.01200
Br208      Br  0.84086510  0.87477522  0.05573239    -0.01200
C209        C  0.83346148  0.94548600  0.68507386    -0.02300
C210        C  0.82143299  0.91114655  0.67747313     0.07300
C211        C  0.83209540  0.88732867  0.71578762    -0.02400
C212        C  0.85463262  0.89775620  0.76088615    -0.02400
C213        C  0.86581091  0.93215251  0.76877772     0.07500
C214        C  0.85529231  0.95593809  0.73058435    -0.02600
Br215      Br  0.86888833  0.00329186  0.74125981    -0.01200
Br216      Br  0.82171211  0.97845258  0.63254421    -0.01300
Br217      Br  0.87205581  0.86442061  0.81096685    -0.01200
Br218      Br  0.81366864  0.84048419  0.70857919    -0.01200
C219        C  0.86105138  0.79772944  0.48732569    -0.02300
C220        C  0.82771652  0.77171517  0.48031510     0.07300
C221        C  0.78239129  0.77524806  0.50062378    -0.02400
C222        C  0.77032308  0.80462759  0.52765007    -0.02400
C223        C  0.80344367  0.83086726  0.53436313     0.07500
C224        C  0.84890533  0.82731338  0.51414623    -0.02600
Br225      Br  0.89389363  0.86360924  0.52066086    -0.01200
Br226      Br  0.92381887  0.79243998  0.46148110    -0.01300
Br227      Br  0.70835773  0.80823514  0.55655780    -0.01200
Br228      Br  0.73582515  0.74047426  0.48944570    -0.01200
C229        C  0.05812386  0.02440513  0.11469745    -0.02300
C230        C  0.01702854  0.00472053  0.11312190     0.07300
C231        C  0.99705545  0.99262311  0.15890507    -0.02400
C232        C  0.01778696  0.00061761  0.20619173    -0.02400
C233        C  0.05882311  0.02052730  0.20777473     0.07500
C234        C  0.07840283  0.03286884  0.16189160    -0.02600
Br235      Br  0.13132394  0.06326586  0.16387916    -0.01200
Br236      Br  0.08711101  0.03918374  0.05196803    -0.01300
Br237      Br  0.99013765  0.98422834  0.26871479    -0.01200
Br238      Br  0.94179895  0.96450447  0.15636835    -0.01200
C239        C  0.03191342  0.15664535  0.35189632    -0.02300
C240        C  0.03705138  0.15919877  0.40559367     0.07300
C241        C  0.05078989  0.12997363  0.43318465    -0.02400
C242        C  0.06167974  0.09988809  0.40701090    -0.02400
C243        C  0.06093931  0.09869598  0.35327420     0.07500
C244        C  0.04502367  0.12699034  0.32586589    -0.02600
Br245      Br  0.04423766  0.12666682  0.25203600    -0.01200
Br246      Br  0.00520559  0.19296102  0.31253822    -0.01300
Br247      Br  0.07701797  0.05975477  0.44536466    -0.01200
Br248      Br  0.05795627  0.13003682  0.50667382    -0.01200
C249        C  0.92509544  0.14898519  0.85411414    -0.02300
C250        C  0.96457135  0.15824427  0.82474816     0.07300
C251        C  0.00087859  0.13473476  0.81762532    -0.02400
C252        C  0.99782246  0.10237280  0.83982139    -0.02400
C253        C  0.95792711  0.09281116  0.86859171     0.07500
C254        C  0.92163226  0.11641537  0.87569964    -0.02600
Br255      Br  0.86515675  0.10362694  0.91161046    -0.01200
Br256      Br  0.87378653  0.17996717  0.86147685    -0.01300
Br257      Br  0.04968414  0.07179035  0.83216163    -0.01200
Br258      Br  0.05568529  0.14689495  0.77807687    -0.01200
C259        C  0.02900177  0.23501311  0.64913096    -0.02300
C260        C  0.98555296  0.22312903  0.66734162     0.07300
C261        C  0.95172512  0.21107090  0.63290443    -0.02400
C262        C  0.96080469  0.21181680  0.58014487    -0.02400
C263        C  0.00416780  0.22387291  0.56186125     0.07500
C264        C  0.03866443  0.23472730  0.59651448    -0.02600
Br265      Br  0.10052864  0.24636603  0.57232183    -0.01200
Br266      Br  0.07611963  0.25015114  0.69649694    -0.01300
Br267      Br  0.91359569  0.19686556  0.53281735    -0.01200
Br268      Br  0.89272066  0.19397614  0.65809642    -0.01200
C269        C  0.87606240  0.60788414  0.02551146    -0.02300
C270        C  0.91939060  0.59383674  0.01030137     0.07300
C271        C  0.96075234  0.61344888  0.01652914    -0.02400
C272        C  0.95889649  0.64539510  0.04020135    -0.02400
C273        C  0.91571363  0.65934729  0.05400519     0.07500
C274        C  0.87432717  0.64090193  0.04558875    -0.02600
Br275      Br  0.81508325  0.66104357  0.06251748    -0.01200
Br276      Br  0.81897154  0.58156109  0.02391745    -0.01300
Br277      Br  0.01582793  0.66919816  0.05709757    -0.01200
Br278      Br  0.02045326  0.59787936  0.99142638    -0.01200
C279        C  0.91012827  0.33094841  0.85292829    -0.02300
C280        C  0.94980048  0.34804968  0.87172510     0.07300
C281        C  0.99405126  0.33299059  0.86766719    -0.02400
C282        C  0.99848926  0.30071164  0.84552105    -0.02400
C283        C  0.95870747  0.28335301  0.82757668     0.07500
C284        C  0.91455911  0.29861672  0.83099741    -0.02600
Br285      Br  0.86055580  0.27581567  0.80339588    -0.01200
Br286      Br  0.85031265  0.35298756  0.85396415    -0.01300
Br287      Br  0.05925585  0.28075609  0.83760637    -0.06400
Br288      Br  0.04861204  0.35695845  0.89154774    -0.01200
C289        C  0.82523783  0.48239921  0.68679688    -0.02300
C290        C  0.80867195  0.51516584  0.67773731     0.07300
C291        C  0.80946891  0.53935982  0.71714031    -0.02400
C292        C  0.83062724  0.53189749  0.76402004    -0.02400
C293        C  0.84867527  0.49929258  0.77285973     0.07500
C294        C  0.84403530  0.47416792  0.73468624    -0.02600
Br295      Br  0.86047963  0.42786503  0.74861666    -0.01200
Br296      Br  0.82307548  0.44901025  0.63321105    -0.01300
Br297      Br  0.83671958  0.56736222  0.81440185    -0.01200
Br298      Br  0.77948182  0.58235258  0.70755454    -0.01200
C299        C  0.84648401  0.61227351  0.54657705    -0.02300
C300        C  0.81842730  0.58682653  0.52339400     0.07300
C301        C  0.80677779  0.59059509  0.47117511    -0.02400
C302        C  0.81535966  0.62135587  0.44567741    -0.02400
C303        C  0.83938230  0.64792413  0.47055841     0.07500
C304        C  0.85696527  0.64245892  0.52007674    -0.02600
Br305      Br  0.89644936  0.67631390  0.55177878    -0.01200
Br306      Br  0.87145995  0.60724024  0.61443478    -0.01300
Br307      Br  0.78998909  0.62743616  0.37813708    -0.01200
Br308      Br  0.78135621  0.55299667  0.43264569    -0.01200
C309        C  0.06317882  0.40674007  0.16368987    -0.02300
C310        C  0.04591715  0.42167327  0.20877578     0.07300
C311        C  0.00687112  0.44296233  0.20687060    -0.02400
C312        C  0.98602833  0.45011429  0.15963461    -0.02400
C313        C  0.00378364  0.43550888  0.11453324     0.07500
C314        C  0.04214866  0.41368663  0.11660074    -0.02600
Br315      Br  0.06609330  0.39374940  0.05465543    -0.01200
Br316      Br  0.11531388  0.37637617  0.16655556    -0.01300
Br317      Br  0.93325633  0.47995481  0.15636050    -0.01200
Br318      Br  0.98166822  0.46177272  0.26898960    -0.01200
C319        C  0.10047426  0.31834996  0.35224419    -0.02300
C320        C  0.06757070  0.34459097  0.35210882     0.07300
C321        C  0.02468214  0.34051576  0.37778100    -0.02400
C322        C  0.01500592  0.31047125  0.40463612    -0.02400
C323        C  0.04781983  0.28395557  0.40460948     0.07500
C324        C  0.09048028  0.28798454  0.37798350    -0.02600
Br325      Br  0.13658474  0.25268379  0.37830734    -0.01200
Br326      Br  0.15903388  0.32370461  0.31601750    -0.01300
Br327      Br  0.95608191  0.30571424  0.44008988    -0.01200
Br328      Br  0.97972289  0.37658020  0.37708541    -0.01200
C329        C  0.46367559  0.21165454  0.73560550    -0.02300
C330        C  0.49727161  0.22875078  0.70555026     0.07300
C331        C  0.53480255  0.24581008  0.72901254    -0.02400
C332        C  0.53950861  0.24488434  0.78236718    -0.02400
C333        C  0.50613160  0.22742848  0.81236261     0.07500
C334        C  0.46815833  0.21095064  0.78892783    -0.02600
Br335      Br  0.42122591  0.18851571  0.83007419    -0.01200
Br336      Br  0.40992758  0.19080747  0.70402124    -0.01300
Br337      Br  0.59325026  0.26588283  0.81385059    -0.01200
Br338      Br  0.58059991  0.26957761  0.68802406    -0.01200
C339        C  0.43446309  0.12632040  0.49464691    -0.02300
C340        C  0.46819250  0.10116259  0.50344552     0.07300
C341        C  0.50847539  0.10941092  0.53190996    -0.02400
C342        C  0.51501571  0.14238271  0.55099813    -0.02400
C343        C  0.48004847  0.16692676  0.54473336     0.07500
C344        C  0.43982435  0.15878253  0.51618474    -0.02600
Br345      Br  0.39005479  0.19108290  0.50944657    -0.01200
Br346      Br  0.38105821  0.11686280  0.45216160    -0.01300
Br347      Br  0.57286596  0.15402880  0.58454282    -0.01200
Br348      Br  0.55307112  0.07494187  0.54916553    -0.01200
C349        C  0.23019221  0.04285787  0.31502208    -0.02300
C350        C  0.19166987  0.02199645  0.32744791     0.07300
C351        C  0.19811848  0.99357977  0.35883127    -0.02400
C352        C  0.24279782  0.98625838  0.37802832    -0.02400
C353        C  0.28126591  0.00714593  0.36566271     0.07500
C354        C  0.27491265  0.03539447  0.33391396    -0.02600
Br355      Br  0.32722470  0.06450393  0.31783579    -0.01200
Br356      Br  0.22126256  0.08209271  0.27278145    -0.01300
Br357      Br  0.25144242  0.94808207  0.42241166    -0.01200
Br358      Br  0.14539878  0.96547596  0.37706496    -0.01200
C359        C  0.64395257  0.93996468  0.48127373    -0.02300
C360        C  0.60598999  0.94514687  0.51468004     0.07300
C361        C  0.61201544  0.94072830  0.56761789    -0.02400
C362        C  0.65533215  0.93005241  0.58693712    -0.02400
C363        C  0.69293562  0.92357820  0.55316233     0.07500
C364        C  0.68746481  0.93001873  0.50049696    -0.02600
Br365      Br  0.74012952  0.92661899  0.45438632    -0.01200
Br366      Br  0.63536106  0.94361420  0.40846531    -0.01300
Br367      Br  0.66171706  0.92310683  0.65948806    -0.01200
Br368      Br  0.56066638  0.94917694  0.61374944    -0.01200
C369        C  0.69495501  0.00327944  0.00271464    -0.02300
C370        C  0.69139118  0.01855604  0.05115793     0.07300
C371        C  0.73074708  0.01995057  0.08322526    -0.02400
C372        C  0.77432440  0.00880118  0.06508213    -0.02400
C373        C  0.77877192  0.99599801  0.01496152     0.07500
C374        C  0.73825189  0.99131491  0.98505901    -0.02600
Br375      Br  0.74114413  0.96897418  0.91954272    -0.01200
Br376      Br  0.64010647  0.99833278  0.96062850    -0.01300
Br377      Br  0.82736175  0.00933102  0.11021296    -0.01200
Br378      Br  0.72595539  0.03865098  0.15121061    -0.01200
C379        C  0.55987938  0.99658228  0.18795902    -0.02300
C380        C  0.56292867  0.03128813  0.17462674     0.07300
C381        C  0.54524598  0.05582895  0.20891643    -0.02400
C382        C  0.52526184  0.04578472  0.25572403    -0.02400
C383        C  0.52264493  0.01137659  0.26866299     0.07500
C384        C  0.54006139  0.98681973  0.23496519    -0.02600
Br385      Br  0.53853029  0.93974641  0.25449597    -0.01200
Br386      Br  0.58079591  0.96156174  0.14178443    -0.01300
Br387      Br  0.50060573  0.07917035  0.30230849    -0.01200
Br388      Br  0.54994988  0.10351387  0.19416172    -0.01200
C389        C  0.58541216  0.14934040  0.95677712    -0.02300
C390        C  0.54019174  0.16148225  0.96501257     0.07300
C391        C  0.50955101  0.14430927  0.99797499    -0.02400
C392        C  0.52433054  0.11514356  0.02394826    -0.02400
C393        C  0.57151555  0.10418099  0.01971761     0.07500
C394        C  0.60189547  0.12177533  0.98508800    -0.02600
Br395      Br  0.66751297  0.11135809  0.97670196    -0.01200
Br396      Br  0.62530584  0.17143634  0.90685609    -0.01300
Br397      Br  0.47772025  0.09025271  0.06244322    -0.01200
Br398      Br  0.44669121  0.16083626  0.00618055    -0.01200
C399        C  0.15327818  0.90599788  0.81048385    -0.02300
C400        C  0.19397276  0.92210020  0.82861408     0.07300
C401        C  0.19059040  0.94742936  0.86619904    -0.02400
C402        C  0.14655407  0.95709362  0.88499665    -0.02400
C403        C  0.10583695  0.94105017  0.86679815     0.07500
C404        C  0.10927541  0.91527726  0.82987308    -0.02600
Br405      Br  0.05378357  0.89134679  0.80834423    -0.01200
Br406      Br  0.15797405  0.87049897  0.76035639    -0.01300
Br407      Br  0.14191388  0.99251819  0.93527036    -0.01200
Br408      Br  0.24654192  0.96840981  0.89241894    -0.01200
C409        C  0.30491576  0.91523654  0.65680095    -0.02300
C410        C  0.32259792  0.92766717  0.70333102     0.07300
C411        C  0.36153867  0.94964544  0.70322591    -0.02400
C412        C  0.38351606  0.95839042  0.65680128    -0.02400
C413        C  0.36589289  0.94577036  0.61037903     0.07500
C414        C  0.32629520  0.92453314  0.61040756    -0.02600
Br415      Br  0.30169208  0.90805920  0.54661377    -0.01200
Br416      Br  0.25270958  0.88421166  0.65665227    -0.01300
Br417      Br  0.43857508  0.98674636  0.65671573    -0.01200
Br418      Br  0.38395643  0.96826721  0.76665832    -0.01200
C419        C  0.38320237  0.81081356  0.32446264    -0.02300
C420        C  0.42305139  0.79039554  0.32092668     0.07300
C421        C  0.46561663  0.80181875  0.34167811    -0.02400
C422        C  0.46837857  0.83374595  0.36556998    -0.02400
C423        C  0.42873856  0.85473042  0.36773180     0.07500
C424        C  0.38615840  0.84309275  0.34691918    -0.02600
Br425      Br  0.33131424  0.87098212  0.34997198    -0.01200
Br426      Br  0.32404762  0.79380416  0.30002171    -0.01300
Br427      Br  0.52730399  0.84942948  0.39247644    -0.01200
Br428      Br  0.52062957  0.77437161  0.33506056    -0.01200
C429        C  0.36624377  0.79444139  0.84778160    -0.02300
C430        C  0.36419694  0.79304290  0.90180987     0.07300
C431        C  0.35134081  0.82256734  0.92910494    -0.02400
C432        C  0.33558986  0.85121345  0.90247987    -0.02400
C433        C  0.33128617  0.85041745  0.84888977     0.07500
C434        C  0.34781993  0.82219319  0.82154646    -0.02600
Br435      Br  0.34078912  0.81932530  0.74828118    -0.01200
Br436      Br  0.39562307  0.75885398  0.80863685    -0.01300
Br437      Br  0.31987986  0.89178930  0.93963958    -0.01200
Br438      Br  0.35302068  0.82458177  0.00276932    -0.01200
C439        C  0.43292934  0.73556370  0.07696684    -0.02300
C440        C  0.39076437  0.72361271  0.05574273     0.07300
C441        C  0.35485602  0.71163376  0.08837435    -0.02400
C442        C  0.36088863  0.71207322  0.14165540    -0.02400
C443        C  0.40253837  0.72486553  0.16291724     0.07500
C444        C  0.43854100  0.73662299  0.13038939    -0.02600
Br445      Br  0.49603333  0.75360769  0.15908733    -0.01200
Br446      Br  0.48394286  0.74883117  0.03283238    -0.01300
Br447      Br  0.31055080  0.69713554  0.18548417    -0.01200
Br448      Br  0.29585033  0.69645379  0.06070858    -0.01200
C449        C  0.37525439  0.61734076  0.36332382    -0.02300
C450        C  0.41854238  0.60313264  0.37644446     0.07300
C451        C  0.46018911  0.62104873  0.36626364    -0.02400
C452        C  0.45872260  0.65276708  0.34226424    -0.02400
C453        C  0.41566839  0.66637323  0.32737370     0.07500
C454        C  0.37386148  0.64885710  0.33858638    -0.02600
Br455      Br  0.31475094  0.66808202  0.32001556    -0.01200
Br456      Br  0.31786956  0.59363366  0.37941709    -0.01300
Br457      Br  0.51591333  0.67685667  0.32747327    -0.01200
Br458      Br  0.51945139  0.60078258  0.38109917    -0.01200
C459        C  0.42107219  0.34427196  0.54830879    -0.02300
C460        C  0.44660150  0.35540528  0.50470568     0.07300
C461        C  0.48006862  0.33328110  0.48285501    -0.02400
C462        C  0.48951859  0.30183968  0.50551946    -0.02400
C463        C  0.46472338  0.29138118  0.54924809     0.07500
C464        C  0.42979330  0.31236156  0.56987155    -0.02600
Br465      Br  0.39245286  0.29699163  0.62726929    -0.01200
Br466      Br  0.37518122  0.37248329  0.58151596    -0.01300
Br467      Br  0.53873755  0.27387775  0.47812024    -0.01200
Br468      Br  0.51263336  0.34441099  0.42051065    -0.01200
C469        C  0.61746424  0.47725630  0.53398195    -0.02300
C470        C  0.58797045  0.50398119  0.51905846     0.07300
C471        C  0.60352083  0.53770858  0.52521460    -0.02400
C472        C  0.64833636  0.54458217  0.54423029    -0.02400
C473        C  0.67892981  0.51793420  0.55573126     0.07500
C474        C  0.66302972  0.48421689  0.55150089    -0.02600
Br475      Br  0.70410386  0.44730277  0.56712670    -0.01200
Br476      Br  0.59520072  0.43098776  0.53281419    -0.01300
Br477      Br  0.66692948  0.59104306  0.55609692    -0.01200
Br478      Br  0.56510127  0.57523513  0.50523040    -0.01200
C479        C  0.25676567  0.44700400  0.31638507    -0.02300
C480        C  0.26246671  0.45771984  0.36726384     0.07300
C481        C  0.22308536  0.46211822  0.39895824    -0.02400
C482        C  0.17874890  0.45201515  0.38169127    -0.02400
C483        C  0.17310501  0.44033931  0.33116510     0.07500
C484        C  0.21192807  0.43974461  0.29778286    -0.02600
Br485      Br  0.20501287  0.42680902  0.22733532    -0.01200
Br486      Br  0.31065348  0.43870496  0.27347003    -0.01300
Br487      Br  0.12603807  0.45352890  0.42778820    -0.01200
Br488      Br  0.22967792  0.48311932  0.46522140    -0.01200
C489        C  0.68483345  0.43577074  0.99754155    -0.02300
C490        C  0.67625633  0.42961819  0.04989379     0.07300
C491        C  0.71388210  0.43039339  0.08456604    -0.02400
C492        C  0.75933030  0.43803408  0.06706019    -0.02400
C493        C  0.76771235  0.44322674  0.01468727     0.07500
C494        C  0.73056304  0.44155502  0.97989342    -0.02600
Br495      Br  0.74298865  0.44428586  0.90741075    -0.01200
Br496      Br  0.63401391  0.43627855  0.94939478    -0.01300
Br497      Br  0.81027285  0.44144776  0.11468027    -0.01200
Br498      Br  0.70465672  0.41777299  0.15501801    -0.01200
C499        C  0.50824848  0.41112818  0.25384086    -0.02300
C500        C  0.49819170  0.44542044  0.26276628     0.07300
C501        C  0.50847717  0.46940195  0.22429157    -0.02400
C502        C  0.53037481  0.45917001  0.17840721    -0.02400
C503        C  0.54276488  0.42503831  0.17101940     0.07500
C504        C  0.53169933  0.40111116  0.20916303    -0.02600
Br505      Br  0.55091633  0.35459518  0.20231878    -0.01200
Br506      Br  0.48614007  0.37710451  0.30064036    -0.01300
Br507      Br  0.54171943  0.49179855  0.12500605    -0.01200
Br508      Br  0.49342656  0.51641358  0.23430244    -0.01200
C509        C  0.59257818  0.31836708  0.01807268    -0.02300
C510        C  0.55804671  0.34230298  0.03122113     0.07300
C511        C  0.51107551  0.33619814  0.01729036    -0.02400
C512        C  0.49924598  0.30689216  0.98936192    -0.02400
C513        C  0.53416878  0.28389522  0.97516484     0.07500
C514        C  0.58088311  0.29016535  0.98833784    -0.02600
Br515      Br  0.62968759  0.26135334  0.96226284    -0.01200
Br516      Br  0.65575966  0.32213066  0.04344214    -0.01300
Br517      Br  0.43551385  0.29835509  0.96954210    -0.01200
Br518      Br  0.46286022  0.36800032  0.03478207    -0.01200
C519        C  0.12964481  0.54197711  0.80154277    -0.02300
C520        C  0.17267563  0.53372178  0.82366871     0.07300
C521        C  0.17408825  0.51231792  0.86642423    -0.02400
C522        C  0.13244170  0.49866781  0.88660900    -0.02400
C523        C  0.08922995  0.50738784  0.86507934     0.07500
C524        C  0.08789728  0.52901307  0.82238477    -0.02600
Br525      Br  0.02881053  0.54257795  0.79419390    -0.01200
Br526      Br  0.12792311  0.57251086  0.74427019    -0.01300
Br527      Br  0.13469874  0.46684465  0.94219199    -0.01200
Br528      Br  0.23314468  0.50202475  0.89744356    -0.01200
C529        C  0.31935098  0.50746915  0.69456888    -0.02300
C530        C  0.29602045  0.53863640  0.69333208     0.07300
C531        C  0.29351833  0.55686931  0.64741304    -0.02400
C532        C  0.31421843  0.54392652  0.60275874    -0.02400
C533        C  0.33960682  0.51358544  0.60447126     0.07500
C534        C  0.34146187  0.49508017  0.65029648    -0.02600
Br535      Br  0.37592909  0.45356257  0.65316227    -0.01200
Br536      Br  0.32302253  0.48263589  0.75769437    -0.01300
Br537      Br  0.30518670  0.56658407  0.53845316    -0.01200
Br538      Br  0.26151854  0.59952017  0.64573979    -0.01200
C539        C  0.36210225  0.64669974  0.87801333    -0.02300
C540        C  0.33270576  0.67198877  0.89736510     0.07300
C541        C  0.28479484  0.67141369  0.88587435    -0.02400
C542        C  0.26642773  0.64605830  0.85404823    -0.02400
C543        C  0.29536578  0.61979316  0.83614098     0.07500
C544        C  0.34351257  0.62042628  0.84781416    -0.02600
Br545      Br  0.38433466  0.58517992  0.82384848    -0.01200
Br546      Br  0.42805273  0.64859192  0.89222876    -0.01300
Br547      Br  0.20240491  0.64920239  0.83180308    -0.01200
Br548      Br  0.24388461  0.70473317  0.91557938    -0.01200
loop_ 
_geom_bond_atom_site_label_1 
_geom_bond_atom_site_label_2 
_geom_bond_distance 
_geom_bond_site_symmetry_2 
_ccdc_geom_bond_type 
C1            N2   1.358       .  A
C1            N6   1.359       .  A
C1          C530   1.473       .  S
N2            C3   1.357       .  A
C3            N4   1.355       .  A
C3          C520   1.469       .  S
N4            C5   1.357       .  A
C5            N6   1.359       .  A
C5          C543   1.481       .  S
C7            N8   1.362       .  A
C7           N12   1.364       .  A
C7          C503   1.484       .  S
N8            C9   1.356       .  A
C9           N10   1.350       .  A
C9          C510   1.481       .  S
N10          C11   1.351       .  A
C11          N12   1.361       .  A
C11         C490   1.479       .  S
Zn13         O17   1.955       .  S
Zn13         O18   1.995       .  S
Zn13         O22   1.989       .  S
Zn13         O29   2.024       .  S
Zn14         O17   1.954       .  S
Zn14         O19   2.012       .  S
Zn14         O21   2.039       .  S
Zn14         O25   2.020       .  S
Zn15         O17   1.962       .  S
Zn15         O20   2.005       .  S
Zn15         O23   2.027       .  S
Zn15         O26   2.027       .  S
Zn16         O17   1.956       .  S
Zn16         O24   2.030       .  S
Zn16         O27   2.013       .  S
Zn16         O28   2.034       .  S
O18          C30   1.270       .  A
O19          C31   1.273       .  A
O20          C32   1.272       .  A
O21          C30   1.275       .  A
O22          C32   1.270       .  A
O23          C31   1.273       .  A
O24          C33   1.274       .  A
O25          C34   1.275       .  A
O26          C33   1.274       .  A
O27          C34   1.273       .  A
O28          C35   1.277       .  A
O29          C35   1.273       .  A
C30         C450   1.475       .  S
C31         C533   1.477       .  S
C32         C480   1.470       .  S
C33         C460   1.502       .  S
C34         C470   1.487       .  S
C35         C500   1.487       .  S
C36          N37   1.361   1_554  A
C36          N41   1.363   1_554  A
C36         C440   1.483       .  S
N37          C38   1.356       .  A
C38          N39   1.351       .  A
C38         C540   1.471       .  S
N39          C40   1.355       .  A
C40          N41   1.361       .  A
C40         C430   1.496       .  S
C42          N43   1.359       .  A
C42          N47   1.359       .  A
C42         C453   1.475       .  S
N43          C44   1.359       .  A
C44          N45   1.360       .  A
C44         C420   1.478       .  S
N45          C46   1.359       .  A
C46          N47   1.359       .  A
C46         C443   1.482       .  S
C48          N49   1.360       .  A
C48          N53   1.358       .  A
C48         C410   1.476       .  S
N49          C50   1.360       .  A
C50          N51   1.357       .  A
C50         C400   1.474       .  S
N51          C52   1.358       .  A
C52          N53   1.358       .  A
C52         C433   1.483       .  S
C54          N55   1.363       .  A
C54          N59   1.356       .  A
C54         C380   1.488       .  S
N55          C56   1.363       .  A
C56          N57   1.355       .  A
C56         C393   1.508       .  S
N57          C58   1.354       .  A
C58          N59   1.353       .  A
C58         C370   1.476       .  S
Zn60         O64   1.969   1_545  S
Zn60         O65   2.038       .  S
Zn60         O69   2.028       .  S
Zn60         O76   2.020   1_545  S
Zn61         O64   1.965       .  S
Zn61         O66   2.009       .  S
Zn61         O68   2.029       .  S
Zn61         O72   2.019       .  S
Zn62         O64   1.965   1_545  S
Zn62         O67   2.022       .  S
Zn62         O70   2.010       .  S
Zn62         O73   2.027   1_545  S
Zn63         O64   1.971       .  S
Zn63         O71   2.027       .  S
Zn63         O74   2.042       .  S
Zn63         O75   2.026       .  S
O65          C77   1.275   1_545  A
O66          C78   1.272   1_565  A
O67          C79   1.274       .  A
O68          C77   1.274       .  A
O69          C79   1.274       .  A
O70          C78   1.272       .  A
O71          C80   1.274       .  A
O72          C81   1.273       .  A
O73          C80   1.274       .  A
O74          C81   1.276       .  A
O75          C82   1.275       .  A
O76          C82   1.274       .  A
C77         C353   1.480   1_565  S
C78         C383   1.471       .  S
C79         C340   1.488       .  S
C80         C360   1.481       .  S
C81         C423   1.485       .  S
C82         C413   1.473       .  S
C83          N84   1.357       .  A
C83          N88   1.362       .  A
C83         C463   1.482       .  S
N84          C85   1.354       .  A
C85          N86   1.356       .  A
C85         C330   1.471       .  S
N86          C87   1.357       .  A
C87          N88   1.362       .  A
C87         C343   1.485       .  S
C89          N90   1.358       .  A
C89          N94   1.358       .  A
C89         C333   1.471       .  S
N90          C91   1.356       .  A
C91          N92   1.357       .  A
C91         C513   1.469       .  S
N92          C93   1.356       .  A
C93          N94   1.356       .  A
C93         C390   1.472       .  S
C95          N96   1.358       .  A
C95         N100   1.361       .  A
C95         C310   1.471       .  S
N96          C97   1.356       .  A
C97          N98   1.354       .  A
C97         C320   1.472       .  S
N98          C99   1.355       .  A
C99         N100   1.360       .  A
C99         C483   1.476       .  S
C101        N102   1.363       .  A
C101        N106   1.359       .  A
C101        C290   1.475       .  S
N102        C103   1.360       .  A
C103        N104   1.356       .  A
C103        C300   1.504       .  S
N104        C105   1.356       .  A
C105        N106   1.358       .  A
C105        C473   1.482       .  S
Zn107       O111   1.957       .  S
Zn107       O112   2.014       .  S
Zn107       O116   2.015       .  S
Zn107       O123   2.006   1_655  S
Zn108       O111   1.958       .  S
Zn108       O113   2.000       .  S
Zn108       O115   2.009       .  S
Zn108       O119   2.034       .  S
Zn109       O111   1.964       .  S
Zn109       O114   2.036       .  S
Zn109       O117   2.021   1_556  S
Zn109       O120   2.028   1_556  S
Zn110       O111   1.952       .  S
Zn110       O118   2.001   1_556  S
Zn110       O121   2.010   1_556  S
Zn110       O122   2.017   1_655  S
O112        C124   1.273       .  A
O113        C125   1.272       .  A
O114        C126   1.275       .  A
O115        C124   1.272       .  A
O116        C126   1.273       .  A
O117        C125   1.274   1_554  A
O118        C127   1.271       .  A
O119        C128   1.274       .  A
O120        C127   1.274       .  A
O121        C128   1.271   1_554  A
O122        C129   1.274       .  A
O123        C129   1.272       .  A
C124        C293   1.484       .  S
C125        C493   1.471   1_556  S
C126        C280   1.476       .  S
C127        C313   1.469   1_655  S
C128        C270   1.495   1_556  S
C129        C523   1.473       .  S
C130        N131   1.357       .  A
C130        N135   1.364       .  A
C130        C250   1.486       .  S
N131        C132   1.355       .  A
C132        N133   1.355       .  A
C132        C260   1.470       .  S
N133        C134   1.356       .  A
C134        N135   1.363       .  A
C134        C283   1.476       .  S
C136        N137   1.358       .  A
C136        N141   1.356       .  A
C136        C263   1.469       .  S
N137        C138   1.354       .  A
C138        N139   1.360       .  A
C138        C323   1.482       .  S
N139        C140   1.362       .  A
C140        N141   1.353       .  A
C140        C240   1.500       .  S
C142        N143   1.359       .  A
C142        N147   1.365       .  A
C142        C233   1.481       .  S
N143        C144   1.358       .  A
C144        N145   1.358       .  A
C144        C243   1.486       .  S
N145        C146   1.355       .  A
C146        N147   1.362       .  A
C146        C350   1.480       .  S
C148        N149   1.363       .  A
C148        N153   1.361       .  A
C148        C210   1.488       .  S
N149        C150   1.360       .  A
C150        N151   1.356       .  A
C150        C363   1.487       .  S
N151        C152   1.355       .  A
C152        N153   1.358       .  A
C152        C223   1.480       .  S
Zn154       O158   1.963       .  S
Zn154       O159   2.013   1_656  S
Zn154       O163   2.014   1_655  S
Zn154       O170   2.017       .  S
Zn155       O158   1.970   1_545  S
Zn155       O160   2.041       .  S
Zn155       O162   2.045   1_556  S
Zn155       O166   2.035       .  S
Zn156       O158   1.965       .  S
Zn156       O161   2.027   1_655  S
Zn156       O164   2.024   1_565  S
Zn156       O167   2.026       .  S
Zn157       O158   1.964       .  S
Zn157       O165   2.017       .  S
Zn157       O168   2.007       .  S
Zn157       O169   2.008       .  S
O159        C171   1.271   1_455  A
O160        C172   1.277       .  A
O161        C173   1.274       .  A
O162        C171   1.276   1_545  A
O163        C173   1.273       .  A
O164        C172   1.275       .  A
O165        C174   1.273       .  A
O166        C175   1.277   1_545  A
O167        C174   1.274       .  A
O168        C175   1.271       .  A
O169        C176   1.272       .  A
O170        C176   1.273       .  A
C171        C230   1.478   1_665  S
C172        C253   1.492       .  S
C173        C403   1.474       .  S
C174        C213   1.484       .  S
C175        C373   1.485   1_556  S
C176        C200   1.479   1_556  S
C177        N178   1.356       .  A
C177        N182   1.359       .  A
C177        C193   1.470       .  S
N178        C179   1.357       .  A
C179        N180   1.358       .  A
C179        C220   1.477       .  S
N180        C181   1.359       .  A
C181        N182   1.360       .  A
C181        C303   1.491       .  S
C183        N184   1.362       .  A
C183        N188   1.356       .  A
C183        C273   1.476       .  S
N184        C185   1.363       .  A
C185        N186   1.359       .  A
C185        C203   1.485       .  S
N186        C187   1.356       .  A
C187        N188   1.355       .  A
C187        C190   1.468       .  S
C189        C190   1.408       .  A
C189        C194   1.408       .  A
C189       Br196   1.928       .  S
C190        C191   1.408       .  A
C191        C192   1.405       .  A
C191       Br198   1.930       .  S
C192        C193   1.408       .  A
C192       Br197   1.929       .  S
C193        C194   1.408       .  A
C194       Br195   1.928       .  S
C199        C200   1.410       .  A
C199        C204   1.409       .  A
C199       Br206   1.932   1_654  S
C200        C201   1.411       .  A
C201        C202   1.408       .  A
C201       Br208   1.936       .  S
C202        C203   1.415       .  A
C202       Br207   1.932       .  S
C203        C204   1.412       .  A
C204       Br205   1.928   1_655  S
C209        C210   1.414       .  A
C209        C214   1.410       .  A
C209       Br216   1.933       .  S
C210        C211   1.416       .  A
C211        C212   1.410       .  A
C211       Br218   1.934       .  S
C212        C213   1.412       .  A
C212       Br217   1.934       .  S
C213        C214   1.412       .  A
C214       Br215   1.932   1_565  S
C219        C220   1.412       .  A
C219        C224   1.410       .  A
C219       Br226   1.931       .  S
C220        C221   1.409       .  A
C221        C222   1.406       .  A
C221       Br228   1.933       .  S
C222        C223   1.413       .  A
C222       Br227   1.933       .  S
C223        C224   1.412       .  A
C224       Br225   1.931       .  S
C229        C230   1.408       .  A
C229        C234   1.409       .  A
C229       Br236   1.928       .  S
C230        C231   1.410   1_445  A
C231        C232   1.412   1_665  A
C231       Br238   1.930       .  S
C232        C233   1.411       .  A
C232       Br237   1.928   1_445  S
C233        C234   1.411       .  A
C234       Br235   1.929       .  S
C239        C240   1.419       .  A
C239        C244   1.410       .  A
C239       Br246   1.937       .  S
C240        C241   1.426       .  A
C241        C242   1.410       .  A
C241       Br248   1.939       .  S
C242        C243   1.410       .  A
C242       Br247   1.938       .  S
C243        C244   1.413       .  A
C244       Br245   1.936       .  S
C249        C250   1.411       .  A
C249        C254   1.412       .  A
C249       Br256   1.932       .  S
C250        C251   1.414   1_655  A
C251        C252   1.411   1_455  A
C251       Br258   1.935       .  S
C252        C253   1.415       .  A
C252       Br257   1.935   1_655  S
C253        C254   1.416       .  A
C254       Br255   1.932       .  S
C259        C260   1.409   1_455  A
C259        C264   1.405       .  A
C259       Br266   1.931       .  S
C260        C261   1.408       .  A
C261        C262   1.406       .  A
C261       Br268   1.930       .  S
C262        C263   1.409   1_655  A
C262       Br267   1.930       .  S
C263        C264   1.410       .  A
C264       Br265   1.932       .  S
C269        C270   1.420       .  A
C269        C274   1.410       .  A
C269       Br276   1.933       .  S
C270        C271   1.422       .  A
C271        C272   1.409       .  A
C271       Br278   1.935   1_654  S
C272        C273   1.405       .  A
C272       Br277   1.931   1_655  S
C273        C274   1.406       .  A
C274       Br275   1.931       .  S
C279        C280   1.409       .  A
C279        C284   1.409       .  A
C279       Br286   1.930       .  S
C280        C281   1.409       .  A
C281        C282   1.409       .  A
C281       Br288   1.929   1_655  S
C282        C283   1.409       .  A
C282       Br287   1.929   1_655  S
C283        C284   1.409       .  A
C284       Br285   1.929       .  S
C289        C290   1.407       .  A
C289        C294   1.409       .  A
C289       Br296   1.928       .  S
C290        C291   1.408       .  A
C291        C292   1.407       .  A
C291       Br298   1.931       .  S
C292        C293   1.415       .  A
C292       Br297   1.934       .  S
C293        C294   1.416       .  A
C294       Br295   1.933       .  S
C299        C300   1.422       .  A
C299        C304   1.413       .  A
C299       Br306   1.933       .  S
C300        C301   1.419       .  A
C301        C302   1.410       .  A
C301       Br308   1.937       .  S
C302        C303   1.413       .  A
C302       Br307   1.934       .  S
C303        C304   1.413       .  A
C304       Br305   1.936       .  S
C309        C310   1.410       .  A
C309        C314   1.406       .  A
C309       Br316   1.928       .  S
C310        C311   1.408       .  A
C311        C312   1.408   1_455  A
C311       Br318   1.928   1_455  S
C312        C313   1.409   1_655  A
C312       Br317   1.930       .  S
C313        C314   1.406       .  A
C314       Br315   1.929       .  S
C319        C320   1.409       .  A
C319        C324   1.407       .  A
C319       Br326   1.934       .  S
C320        C321   1.406       .  A
C321        C322   1.409       .  A
C321       Br328   1.932   1_455  S
C322        C323   1.416       .  A
C322       Br327   1.931   1_455  S
C323        C324   1.412       .  A
C324       Br325   1.932       .  S
C329        C330   1.410       .  A
C329        C334   1.405       .  A
C329       Br336   1.931       .  S
C330        C331   1.409       .  A
C331        C332   1.407       .  A
C331       Br338   1.931       .  S
C332        C333   1.412       .  A
C332       Br337   1.933       .  S
C333        C334   1.408       .  A
C334       Br335   1.931       .  S
C339        C340   1.414       .  A
C339        C344   1.411       .  A
C339       Br346   1.932       .  S
C340        C341   1.414       .  A
C341        C342   1.409       .  A
C341       Br348   1.934       .  S
C342        C343   1.413       .  A
C342       Br347   1.933       .  S
C343        C344   1.413       .  A
C344       Br345   1.933       .  S
C349        C350   1.410       .  A
C349        C354   1.411       .  A
C349       Br356   1.930       .  S
C350        C351   1.410   1_545  A
C351        C352   1.411       .  A
C351       Br358   1.927       .  S
C352        C353   1.409   1_565  A
C352       Br357   1.928       .  S
C353        C354   1.409       .  A
C354       Br355   1.929       .  S
C359        C360   1.409       .  A
C359        C364   1.407       .  A
C359       Br366   1.932       .  S
C360        C361   1.411       .  A
C361        C362   1.412       .  A
C361       Br368   1.930       .  S
C362        C363   1.416       .  A
C362       Br367   1.932       .  S
C363        C364   1.414       .  A
C364       Br365   1.934       .  S
C369        C370   1.409       .  A
C369        C374   1.407   1_544  A
C369       Br376   1.934   1_544  S
C370        C371   1.411       .  A
C371        C372   1.408       .  A
C371       Br378   1.933       .  S
C372        C373   1.413   1_545  A
C372       Br377   1.932       .  S
C373        C374   1.416   1_554  A
C374       Br375   1.932       .  S
C379        C380   1.421   1_565  A
C379        C384   1.407       .  A
C379       Br386   1.936       .  S
C380        C381   1.417       .  A
C381        C382   1.408       .  A
C381       Br388   1.932       .  S
C382        C383   1.406       .  A
C382       Br387   1.933       .  S
C383        C384   1.405   1_545  A
C384       Br385   1.934       .  S
C389        C390   1.402       .  A
C389        C394   1.408       .  A
C389       Br396   1.938       .  S
C390        C391   1.401       .  A
C391        C392   1.411   1_556  A
C391       Br398   1.933   1_556  S
C392        C393   1.427       .  A
C392       Br397   1.934       .  S
C393        C394   1.432   1_554  A
C394       Br395   1.940       .  S
C399        C400   1.409       .  A
C399        C404   1.408       .  A
C399       Br406   1.927       .  S
C400        C401   1.408       .  A
C401        C402   1.408       .  A
C401       Br408   1.929       .  S
C402        C403   1.409       .  A
C402       Br407   1.928       .  S
C403        C404   1.409       .  A
C404       Br405   1.931       .  S
C409        C410   1.410       .  A
C409        C414   1.407       .  A
C409       Br416   1.928       .  S
C410        C411   1.409       .  A
C411        C412   1.410       .  A
C411       Br418   1.929       .  S
C412        C413   1.409       .  A
C412       Br417   1.929       .  S
C413        C414   1.407       .  A
C414       Br415   1.929       .  S
C419        C420   1.407       .  A
C419        C424   1.408       .  A
C419       Br426   1.931       .  S
C420        C421   1.409       .  A
C421        C422   1.412       .  A
C421       Br428   1.929       .  S
C422        C423   1.414       .  A
C422       Br427   1.931       .  S
C423        C424   1.413       .  A
C424       Br425   1.930       .  S
C429        C430   1.418       .  A
C429        C434   1.406       .  A
C429       Br436   1.937       .  S
C430        C431   1.420       .  A
C431        C432   1.412       .  A
C431       Br438   1.933   1_556  S
C432        C433   1.411       .  A
C432       Br437   1.933       .  S
C433        C434   1.411       .  A
C434       Br435   1.935       .  S
C439        C440   1.411       .  A
C439        C444   1.411       .  A
C439       Br446   1.929       .  S
C440        C441   1.414       .  A
C441        C442   1.408       .  A
C441       Br448   1.934       .  S
C442        C443   1.410       .  A
C442       Br447   1.929       .  S
C443        C444   1.411       .  A
C444       Br445   1.930       .  S
C449        C450   1.411       .  A
C449        C454   1.409       .  A
C449       Br456   1.932       .  S
C450        C451   1.408       .  A
C451        C452   1.407       .  A
C451       Br458   1.927       .  S
C452        C453   1.408       .  A
C452       Br457   1.927       .  S
C453        C454   1.409       .  A
C454       Br455   1.929       .  S
C459        C460   1.422       .  A
C459        C464   1.410       .  A
C459       Br466   1.935       .  S
C460        C461   1.422       .  A
C461        C462   1.410       .  A
C461       Br468   1.927       .  S
C462        C463   1.406       .  A
C462       Br467   1.935       .  S
C463        C464   1.411       .  A
C464       Br465   1.937       .  S
C469        C470   1.417       .  A
C469        C474   1.412       .  A
C469       Br476   1.935       .  S
C470        C471   1.414       .  A
C471        C472   1.405       .  A
C471       Br478   1.932       .  S
C472        C473   1.412       .  A
C472       Br477   1.936       .  S
C473        C474   1.412       .  A
C474       Br475   1.931       .  S
C479        C480   1.409       .  A
C479        C484   1.404       .  A
C479       Br486   1.935       .  S
C480        C481   1.409       .  A
C481        C482   1.406       .  A
C481       Br488   1.934       .  S
C482        C483   1.412       .  A
C482       Br487   1.930       .  S
C483        C484   1.412       .  A
C484       Br485   1.926       .  S
C489        C490   1.414   1_556  A
C489        C494   1.404       .  A
C489       Br496   1.933       .  S
C490        C491   1.414       .  A
C491        C492   1.409       .  A
C491       Br498   1.930       .  S
C492        C493   1.408       .  A
C492       Br497   1.930       .  S
C493        C494   1.407   1_554  A
C494       Br495   1.934       .  S
C499        C500   1.410       .  A
C499        C504   1.405       .  A
C499       Br506   1.925       .  S
C500        C501   1.415       .  A
C501        C502   1.414       .  A
C501       Br508   1.932       .  S
C502        C503   1.413       .  A
C502       Br507   1.931       .  S
C503        C504   1.412       .  A
C504       Br505   1.935       .  S
C509        C510   1.417       .  A
C509        C514   1.400   1_554  A
C509       Br516   1.937       .  S
C510        C511   1.416       .  A
C511        C512   1.411   1_554  A
C511       Br518   1.930       .  S
C512        C513   1.407       .  A
C512       Br517   1.929       .  S
C513        C514   1.405       .  A
C514       Br515   1.934       .  S
C519        C520   1.407       .  A
C519        C524   1.406       .  A
C519       Br526   1.931       .  S
C520        C521   1.408       .  A
C521        C522   1.407       .  A
C521       Br528   1.929       .  S
C522        C523   1.410       .  A
C522       Br527   1.930       .  S
C523        C524   1.412       .  A
C524       Br525   1.932       .  S
C529        C530   1.409       .  A
C529        C534   1.408       .  A
C529       Br536   1.931       .  S
C530        C531   1.407       .  A
C531        C532   1.407       .  A
C531       Br538   1.930       .  S
C532        C533   1.411       .  A
C532       Br537   1.931       .  S
C533        C534   1.410       .  A
C534       Br535   1.927       .  S
C539        C540   1.406       .  A
C539        C544   1.409       .  A
C539       Br546   1.929       .  S
C540        C541   1.407       .  A
C541        C542   1.405       .  A
C541       Br548   1.932       .  S
C542        C543   1.414       .  A
C542       Br547   1.934       .  S
C543        C544   1.415       .  A
C544       Br545   1.931       .  S
