geometry optimzed in LAMMPS
_audit_creation_date              2020-11-30 
_audit_creation_method            'lammps2cif' 
_symmetry_space_group_name_H-M    'P1' 
_symmetry_Int_Tables_number       1 
_symmetry_cell_setting            triclinic 
loop_ 
_symmetry_equiv_pos_as_xyz 
  x,y,z 
_cell_length_a                    32.88074123 
_cell_length_b                    33.057323653600726 
_cell_length_c                    25.330596784029698 
_cell_angle_alpha                 87.12713362587935 
_cell_angle_beta                  89.14998928631094 
_cell_angle_gamma                 89.68749250754325 
loop_ 
_atom_site_label 
_atom_site_type_symbol 
_atom_site_fract_x 
_atom_site_fract_y 
_atom_site_fract_z 
_atom_site_charge 
C1          C  0.10620253  0.01209480  0.48379622    -0.02800
O2          O  0.23526548  0.47207246  0.29850625    -0.72100
O3          O  0.31810009  0.46631699  0.19365533    -0.72300
O4          O  0.31627054  0.46710258  0.30031754    -0.72100
O5          O  0.23680781  0.47179701  0.19249662    -0.72100
O6          O  0.23952623  0.04175026  0.18234690    -0.72100
O7          O  0.32011890  0.03518290  0.28743474    -0.72100
O8          O  0.32021270  0.03585511  0.18080661    -0.72100
O9          O  0.23880372  0.04058154  0.28834237    -0.72200
V10         V  0.27674329  0.47059575  0.24609954     1.35200
V11         V  0.27965760  0.03708437  0.23488487     1.35200
C12         C  0.22423741  0.50570957  0.31557676     0.77200
C13         C  0.33157007  0.49816206  0.17007616     0.77200
C14         C  0.33252907  0.49911743  0.31523830     0.77100
C15         C  0.22346679  0.50538800  0.17342863     0.77100
C16         C  0.43719595  0.49728034  0.50140385    -0.02800
C17         C  0.01643873  0.08535587  0.52084879    -0.02800
O18         O  0.05745868  0.29618786  0.20971495    -0.72100
O19         O  0.05424145  0.21368507  0.31947385    -0.72300
O20         O  0.05504738  0.21504751  0.21245015    -0.71900
O21         O  0.05632960  0.29455832  0.31623402    -0.72100
O22         O  0.48807113  0.27710282  0.30157639    -0.72100
O23         O  0.48660457  0.19895847  0.19816376    -0.72100
O24         O  0.48719649  0.19602066  0.30467624    -0.72100
O25         O  0.48839689  0.27963707  0.19574406    -0.72200
V26         V  0.05452655  0.25484091  0.26444585     1.35200
V27         V  0.48886529  0.23783451  0.25009042     1.35200
C28         C  0.02485514  0.30941251  0.18931290     0.77200
C29         C  0.02075441  0.20257879  0.34053281     0.77200
C30         C  0.02182076  0.20112740  0.19647445     0.77100
C31         C  0.02361214  0.31067163  0.33190097     0.77100
C32         C  0.02722451  0.42003661  0.50754935    -0.02800
C33         C  0.03820345  0.32592063  0.42395696    -0.13600
C34         C  0.02413849  0.33949850  0.37450806     0.08500
C35         C  0.48439209  0.34074567  0.37109690    -0.13600
C36         C  0.48370347  0.37018575  0.40849545    -0.13600
C37         C  0.02396805  0.39218846  0.46014867     0.08500
C38         C  0.03834142  0.35167136  0.46580479    -0.13600
H39         H  0.04891502  0.29502286  0.43038879     0.12500
H40         H  0.45625908  0.33349339  0.35203921     0.12500
H41         H  0.45467683  0.38383553  0.41788830     0.12500
H42         H  0.05049987  0.33946510  0.50273898     0.12500
C43         C  0.48568497  0.33761009  0.10957870    -0.13600
C44         C  0.02510777  0.33969762  0.14468676     0.08500
C45         C  0.06157472  0.35506553  0.12224347    -0.13600
C46         C  0.06086704  0.38165173  0.07739734    -0.13600
C47         C  0.02350687  0.39371338  0.05467481     0.08500
C48         C  0.48594308  0.36470966  0.06569050    -0.13600
H49         H  0.45676675  0.32620316  0.12475012     0.12500
H50         H  0.09063112  0.34568148  0.13843928     0.12500
H51         H  0.08953144  0.39126582  0.05960863     0.12500
H52         H  0.45719633  0.37230096  0.04737214     0.12500
C53         C  0.05211740  0.13939027  0.46161012    -0.13600
C54         C  0.01700832  0.11605716  0.47312490     0.08500
C55         C  0.48405493  0.11231428  0.43757846    -0.13600
C56         C  0.48377222  0.13795844  0.39203853    -0.13600
C57         C  0.01949010  0.17303050  0.38601020     0.08500
C58         C  0.05376135  0.16657444  0.41766759    -0.13600
H59         H  0.07881103  0.13567635  0.48594455     0.12500
H60         H  0.45521340  0.10533627  0.45692307     0.12500
H61         H  0.45483099  0.14865005  0.37682044     0.12500
H62         H  0.08161574  0.18310942  0.40904146     0.12500
C63         C  0.05443683  0.14204792  0.07851796    -0.13600
C64         C  0.02105882  0.11626810  0.07109246     0.08500
C65         C  0.98721197  0.11948400  0.10577400    -0.13600
C66         C  0.98739689  0.14679586  0.14662772    -0.13600
C67         C  0.02147648  0.17123050  0.15446559     0.08500
C68         C  0.05498891  0.16833652  0.11999873    -0.13600
H69         H  0.46040544  0.13342814  0.03272626     0.12500
H70         H  0.96001332  0.10192052  0.10088930     0.12500
H71         H  0.96081398  0.14881743  0.17212526     0.12500
H72         H  0.46066242  0.17849905  0.10610586     0.12500
C73         C  0.46480999  0.46005300  0.50925848    -0.16700
C74         C  0.48336947  0.44119321  0.46962088    -0.31900
H75         H  0.47563878  0.45339334  0.54907514     0.12300
H76         H  0.49536738  0.45839468  0.03599737     0.12900
C77         C  0.47303175  0.02146111  0.48448671    -0.16700
C78         C  0.48287822  0.04794980  0.52126892    -0.31900
H79         H  0.49222733  0.02091188  0.44920169     0.12300
H80         H  0.46121195  0.05160664  0.04547564     0.12900
C81         C  0.38372989  0.53224936  0.37124336    -0.13600
C82         C  0.36147073  0.49777246  0.35982656     0.08500
C83         C  0.36506463  0.46287709  0.39356599    -0.13600
C84         C  0.38971332  0.46278581  0.43827436    -0.13600
C85         C  0.41244587  0.49719260  0.44988171     0.08500
C86         C  0.40878758  0.53202450  0.41540504    -0.13600
H87         H  0.38128023  0.55979076  0.34644666     0.12500
H88         H  0.34784754  0.43594097  0.38630378     0.12500
H89         H  0.39085762  0.43576845  0.46423211     0.12500
H90         H  0.42412543  0.55986994  0.42305698     0.12500
C91         C  0.40509389  0.45775283  0.06862758    -0.13600
C92         C  0.40794335  0.49078561  0.03141398     0.08500
C93         C  0.38714336  0.02631333  0.03549359    -0.13600
C94         C  0.36167857  0.52877140  0.08696033    -0.13600
C95         C  0.35919461  0.49591826  0.12392999     0.08500
C96         C  0.38086144  0.46024340  0.11424667    -0.13600
H97         H  0.42094961  0.42970006  0.06258366     0.12500
H98         H  0.38681626  0.05006131  0.00444063     0.12500
H99         H  0.34287346  0.05687587  0.08223725     0.12500
H100        H  0.37893631  0.43423290  0.14188646     0.12500
C101        C  0.07069082  0.47887243  0.47629351    -0.16700
C102        C  0.06832885  0.44190944  0.50108265    -0.31900
H103        H  0.04545484  0.48774537  0.45085151     0.12300
H104        H  0.06708523  0.44565638  0.94519436     0.12900
C105        C  0.05381378  0.05745831  0.52407609    -0.16700
C106        C  0.07253852  0.03530090  0.99204919    -0.31900
H107        H  0.08186249  0.06765662  0.06017109     0.12300
H108        H  0.07335408  0.06527397  0.44570570     0.12900
C109        C  0.17348933  0.04625460  0.36321785    -0.13600
C110        C  0.19281420  0.50757099  0.35725264     0.08500
C111        C  0.18301763  0.47291637  0.38890379    -0.13600
C112        C  0.15366543  0.47480033  0.42897452    -0.13600
C113        C  0.13243648  0.51109587  0.43756485     0.08500
C114        C  0.14535221  0.04743360  0.40484549    -0.13600
H115        H  0.18133961  0.07420910  0.34139656     0.12500
H116        H  0.19862226  0.44446212  0.38336401     0.12500
H117        H  0.14778511  0.44778783  0.45370466     0.12500
H118        H  0.13397006  0.07689154  0.41456958     0.12500
C119        C  0.12493042  0.00822519  0.09631759    -0.13600
C120        C  0.13339948  0.50699267  0.05051432     0.08500
C121        C  0.14218814  0.54274038  0.07609613    -0.13600
C122        C  0.17134782  0.54253809  0.11626220    -0.13600
C123        C  0.19219781  0.50661000  0.13172892     0.08500
C124        C  0.18370725  0.47123437  0.10595930    -0.13600
H125        H  0.09336036  0.00491642  0.10809602     0.12500
H126        H  0.12741542  0.57093183  0.06443297     0.12500
H127        H  0.17762922  0.57046767  0.13513126     0.12500
H128        H  0.14333274  0.00325527  0.17725948     0.12500
C129        C  0.10668516  0.00354413  0.99803474    -0.02800
O130        O  0.21853351  0.47157858  0.79715034    -0.72100
O131        O  0.29884956  0.47124346  0.68882280    -0.72300
O132        O  0.29951944  0.46934910  0.79485300    -0.72100
O133        O  0.21709445  0.47409413  0.69073683    -0.72100
O134        O  0.22986045  0.03213658  0.68343364    -0.72100
O135        O  0.30947054  0.02418264  0.79004805    -0.72100
O136        O  0.31092338  0.02694523  0.68385010    -0.72100
O137        O  0.22766012  0.02902257  0.79008294    -0.72200
V138        V  0.25850566  0.47286387  0.74270505     1.35200
V139        V  0.26934012  0.02675296  0.73702424     1.35200
C140        C  0.20731463  0.50427114  0.81662745     0.77200
C141        C  0.31323718  0.50385818  0.66835969     0.77200
C142        C  0.31510606  0.50139936  0.81078487     0.77100
C143        C  0.20467516  0.50794048  0.67154306     0.77100
C144        C  0.43401190  0.49049870  0.98038705    -0.02800
C145        C  0.02245224  0.08816301  0.02393765    -0.02800
O146        O  0.04204361  0.29331487  0.70909884    -0.72100
O147        O  0.04153042  0.21112214  0.81645808    -0.72300
O148        O  0.04211584  0.21211982  0.71077746    -0.71900
O149        O  0.04043352  0.29211511  0.81425971    -0.72100
O150        O  0.48005998  0.28861236  0.79402660    -0.72100
O151        O  0.48579394  0.20629025  0.69490762    -0.72100
O152        O  0.48352310  0.20724829  0.80100858    -0.72100
O153        O  0.48299716  0.28770424  0.68721702    -0.72200
V154        V  0.04015082  0.25212007  0.76256961     1.35200
V155        V  0.48436891  0.24758663  0.74428691     1.35200
C156        C  0.00958481  0.30692605  0.68917451     0.77200
C157        C  0.00892264  0.19822980  0.83768020     0.77200
C158        C  0.00939989  0.19757791  0.69404543     0.77100
C159        C  0.00708058  0.30679398  0.83021299     0.77100
C160        C  0.02009329  0.41874144  0.00210198    -0.02800
C161        C  0.00872482  0.32079217  0.92455905    -0.13600
C162        C  0.00635117  0.33588197  0.87243830     0.08500
C163        C  0.51047699  0.37336265  0.84776819    -0.13600
C164        C  0.51112276  0.39776745  0.89162151    -0.13600
C165        C  0.01091680  0.38977519  0.95671550     0.08500
C166        C  0.01117175  0.34693829  0.96577486    -0.13600
H167        H  0.00987743  0.28837585  0.93339831     0.12500
H168        H  0.51120342  0.38739113  0.80819676     0.12500
H169        H  0.51259746  0.43030521  0.88454945     0.12500
H170        H  0.01500940  0.33239713  0.00444113     0.12500
C171        C  0.48036913  0.34244681  0.59491836    -0.13600
C172        C  0.01200463  0.33889865  0.64707791     0.08500
C173        C  0.04815436  0.36088677  0.63990337    -0.13600
C174        C  0.05340831  0.38807641  0.59678449    -0.13600
C175        C  0.02249429  0.39382210  0.55914150     0.08500
C176        C  0.48125046  0.36896115  0.54988105    -0.13600
H177        H  0.45143964  0.33020140  0.60877710     0.12500
H178        H  0.07304482  0.35638635  0.66718456     0.12500
H179        H  0.08229672  0.40296646  0.59347740     0.12500
H180        H  0.45297174  0.37575682  0.52987393     0.12500
C181        C  0.05268859  0.12463292  0.94023664    -0.13600
C182        C  0.01925253  0.11639978  0.97414296     0.08500
C183        C  0.48221055  0.11390178  0.92386557    -0.13600
C184        C  0.48204052  0.14257424  0.88124683    -0.13600
C185        C  0.01113061  0.16869127  0.88308518     0.08500
C186        C  0.04857656  0.15002285  0.89515737    -0.13600
H187        H  0.08254580  0.11270299  0.94916720     0.12500
H188        H  0.45381504  0.09911871  0.93414575     0.12500
H189        H  0.45431549  0.14724601  0.85917362     0.12500
H190        H  0.07517251  0.15569811  0.87020786     0.12500
C191        C  0.97702928  0.13070763  0.58364802    -0.13600
C192        C  0.01367921  0.11083564  0.57050874     0.08500
C193        C  0.04852875  0.11962529  0.59995279    -0.13600
C194        C  0.04675834  0.14701257  0.64036321    -0.13600
C195        C  0.01023408  0.16666768  0.65309573     0.08500
C196        C  0.97519517  0.15771422  0.62476254    -0.13600
H197        H  0.52361825  0.16136729  0.50677352     0.12500
H198        H  0.07789788  0.10667143  0.59070384     0.12500
H199        H  0.07437732  0.15332312  0.66116323     0.12500
H200        H  0.52356171  0.20805375  0.57584803     0.12500
C201        C  0.45749080  0.45085706  0.97264045    -0.16700
C202        C  0.48958083  0.44019811  0.00232300    -0.31900
H203        H  0.45032037  0.43295771  0.93935934     0.12300
H204        H  0.47740277  0.45232599  0.42935577     0.12900
C205        C  0.47029738  0.02331548  0.97316952    -0.16700
C206        C  0.47901910  0.05082851  0.00920077    -0.31900
H207        H  0.48995272  0.02261171  0.93826844     0.12300
H208        H  0.46463309  0.04966709  0.55702135     0.12900
C209        C  0.37385530  0.53106940  0.85793166    -0.13600
C210        C  0.34602893  0.49944221  0.85253991     0.08500
C211        C  0.34700805  0.46595764  0.88853435    -0.13600
C212        C  0.37496941  0.46412148  0.92929501    -0.13600
C213        C  0.40385399  0.49508339  0.93456985     0.08500
C214        C  0.40276555  0.52881892  0.89819923    -0.13600
H215        H  0.37346431  0.55739970  0.83070487     0.12500
H216        H  0.32553311  0.44144476  0.88584037     0.12500
H217        H  0.37433836  0.43803146  0.95695676     0.12500
H218        H  0.42365481  0.55372364  0.90090885     0.12500
C219        C  0.39628705  0.46494988  0.58009605    -0.13600
C220        C  0.40598950  0.49935354  0.54701495     0.08500
C221        C  0.38956081  0.02616948  0.54775907    -0.13600
C222        C  0.35344900  0.53699944  0.59337490    -0.13600
C223        C  0.34482491  0.50277303  0.62657490     0.08500
C224        C  0.36631032  0.46676025  0.61924033    -0.13600
H225        H  0.41079795  0.43593009  0.57529514     0.12500
H226        H  0.39286245  0.05271869  0.52121396     0.12500
H227        H  0.34444115  0.05511563  0.59504787     0.12500
H228        H  0.35990743  0.43972259  0.64384351     0.12500
C229        C  0.07559685  0.46802592  0.02022722    -0.16700
C230        C  0.05830099  0.44314992  0.98655934    -0.31900
H231        H  0.06427261  0.46657268  0.06084161     0.12300
H232        H  0.09561808  0.42898044  0.51820122     0.12900
C233        C  0.06233393  0.06344641  0.02695913    -0.16700
C234        C  0.07951151  0.05015720  0.48362130    -0.31900
H235        H  0.05607776  0.03833881  0.56004899     0.12300
H236        H  0.05246070  0.03160901  0.95903303     0.12900
C237        C  0.15948407  0.03179410  0.86337844    -0.13600
C238        C  0.17977427  0.50369312  0.86322544     0.08500
C239        C  0.16722663  0.46682142  0.88824058    -0.13600
C240        C  0.14273398  0.46634445  0.93390993    -0.13600
C241        C  0.12869582  0.50280344  0.95450919     0.08500
C242        C  0.13333216  0.03316475  0.90738831    -0.13600
H243        H  0.16221601  0.05835066  0.83676807     0.12500
H244        H  0.17708950  0.43822965  0.87319334     0.12500
H245        H  0.13561582  0.43734163  0.95333933     0.12500
H246        H  0.11746761  0.06123798  0.91337543     0.12500
C247        C  0.12118491  0.98819360  0.58167282    -0.13600
C248        C  0.12677648  0.51102986  0.53600051     0.08500
C249        C  0.15979533  0.53792364  0.53935475    -0.13600
C250        C  0.18405361  0.53763783  0.58410582    -0.13600
C251        C  0.17620031  0.51042231  0.62708589     0.08500
C252        C  0.14186084  0.48561863  0.62624586    -0.13600
H253        H  0.09149182  0.97479257  0.58673939     0.12500
H254        H  0.16733523  0.55911778  0.50681122     0.12500
H255        H  0.20988023  0.55782652  0.58438291     0.12500
H256        H  0.13887711  0.96629585  0.65950538     0.12500
C257        C  0.10206999  0.51215505  0.48414016    -0.02800
O258        O  0.23396999  0.97499535  0.29066622    -0.72100
O259        O  0.31706169  0.97011634  0.18636036    -0.72300
O260        O  0.31449558  0.96961682  0.29257832    -0.72100
O261        O  0.23583509  0.97594831  0.18492551    -0.72100
O262        O  0.23804639  0.53750676  0.19037165    -0.72100
O263        O  0.32231458  0.53248100  0.29224979    -0.72100
O264        O  0.31931520  0.53201893  0.18545728    -0.72100
O265        O  0.24081245  0.53759905  0.29608112    -0.72200
V266        V  0.27550497  0.97395436  0.23844325     1.35200
V267        V  0.28023056  0.53365549  0.24119944     1.35200
C268        C  0.22262010  0.00845543  0.30790184     0.77200
C269        C  0.33195314  0.00207187  0.16470981     0.77200
C270        C  0.33003902  0.00138445  0.30909237     0.77100
C271        C  0.22439458  0.00999553  0.16557823     0.77100
C272        C  0.43933703  0.98920372  0.48824928    -0.02800
C273        C  0.01536852  0.58894604  0.52116115    -0.02800
O274        O  0.06390169  0.79317889  0.20223909    -0.72100
O275        O  0.05766688  0.71450698  0.31718209    -0.72300
O276        O  0.05656488  0.71231838  0.21056958    -0.71900
O277        O  0.06475933  0.79514190  0.30913438    -0.72100
O278        O  0.47705781  0.78345026  0.30943789    -0.72100
O279        O  0.47896938  0.69968711  0.21189090    -0.72100
O280        O  0.47658546  0.70221197  0.31858593    -0.72100
O281        O  0.48039818  0.78116738  0.20314546    -0.72200
V282        V  0.05947365  0.75390232  0.25976134     1.35200
V283        V  0.47946310  0.74153951  0.26070017     1.35200
C284        C  0.03190950  0.80983244  0.18426169     0.77200
C285        C  0.02369711  0.70399927  0.33749546     0.77200
C286        C  0.02229814  0.70157297  0.19400296     0.77100
C287        C  0.03305748  0.81140056  0.32765436     0.77100
C288        C  0.03357456  0.91738019  0.50668785    -0.02800
C289        C  0.04215655  0.82299000  0.42207694    -0.13600
C290        C  0.03550501  0.83919607  0.37102451     0.08500
C291        C  0.50735429  0.86589431  0.36182241    -0.13600
C292        C  0.51057109  0.89192790  0.40364483    -0.13600
C293        C  0.03336001  0.88997406  0.45848517     0.08500
C294        C  0.04132641  0.84780630  0.46499209    -0.13600
H295        H  0.04743761  0.79076622  0.42890724     0.12500
H296        H  0.50518961  0.87851416  0.32166833     0.12500
H297        H  0.51129976  0.92426214  0.39437125     0.12500
H298        H  0.04762145  0.83335387  0.50321851     0.12500
C299        C  0.48493295  0.83700829  0.11075729    -0.13600
C300        C  0.03313698  0.84024896  0.13951501     0.08500
C301        C  0.06447282  0.84065645  0.10119153    -0.13600
C302        C  0.06246118  0.86711616  0.05618649    -0.13600
C303        C  0.02961473  0.89450551  0.04918899     0.08500
C304        C  0.48991446  0.86572377  0.06864919    -0.13600
H305        H  0.45580402  0.82224537  0.11682760     0.12500
H306        H  0.08955725  0.81939183  0.10489652     0.12500
H307        H  0.08601385  0.86549494  0.02601924     0.12500
H308        H  0.46451630  0.87190279  0.04272564     0.12500
C309        C  0.05232352  0.64121765  0.46058183    -0.13600
C310        C  0.01671376  0.61855447  0.47201244     0.08500
C311        C  0.47482094  0.62393880  0.45875042    -0.13600
C312        C  0.47351471  0.64824067  0.41194181    -0.13600
C313        C  0.02131044  0.67457837  0.38342012     0.08500
C314        C  0.05492084  0.66804854  0.41625832    -0.13600
H315        H  0.07859870  0.63745056  0.48567791     0.12500
H316        H  0.44640271  0.61629579  0.47882333     0.12500
H317        H  0.44429129  0.65813888  0.39679296     0.12500
H318        H  0.08303761  0.68429356  0.40826052     0.12500
C319        C  0.97879354  0.62599871  0.10137279    -0.13600
C320        C  0.01397096  0.61282213  0.07438203     0.08500
C321        C  0.05149223  0.63022482  0.08723559    -0.13600
C322        C  0.05417689  0.65804628  0.12668512    -0.13600
C323        C  0.01925291  0.67051480  0.15387294     0.08500
C324        C  0.98148968  0.65426685  0.14072548    -0.13600
H325        H  0.57914246  0.59853132  0.08484640     0.12500
H326        H  0.07913231  0.62247521  0.06646241     0.12500
H327        H  0.08366130  0.67046364  0.13509693     0.12500
H328        H  0.57779799  0.64550320  0.15508254     0.12500
C329        C  0.46170834  0.94853301  0.48284063    -0.16700
C330        C  0.49496824  0.93895013  0.51117556    -0.31900
H331        H  0.45302043  0.92920640  0.45170415     0.12300
H332        H  0.50069970  0.96798203  0.04267421     0.12900
C333        C  0.46775375  0.53195596  0.49902475    -0.16700
C334        C  0.47755916  0.55609399  0.53848701    -0.31900
H335        H  0.48534208  0.53461534  0.46257746     0.12300
H336        H  0.46159988  0.53879222  0.06022337     0.12900
C337        C  0.38591126  0.02992477  0.36099936    -0.13600
C338        C  0.35789109  0.99902195  0.35385861     0.08500
C339        C  0.35540589  0.96631068  0.39105652    -0.13600
C340        C  0.38078292  0.96434464  0.43460401    -0.13600
C341        C  0.41045809  0.99424591  0.44118356     0.08500
C342        C  0.41218327  0.02742725  0.40379108    -0.13600
H343        H  0.38795017  0.05573927  0.33301012     0.12500
H344        H  0.33333974  0.94250368  0.38693389     0.12500
H345        H  0.37787571  0.93882265  0.46290941     0.12500
H346        H  0.43364296  0.05162035  0.40689698     0.12500
C347        C  0.41118996  0.96157594  0.07188681    -0.13600
C348        C  0.41260870  0.99214626  0.03082873     0.08500
C349        C  0.38505320  0.52598816  0.04102966    -0.13600
C350        C  0.36222955  0.03038025  0.08006356    -0.13600
C351        C  0.36106774  0.99972709  0.12032305     0.08500
C352        C  0.38565281  0.96533686  0.11582847    -0.13600
H353        H  0.42891397  0.93412375  0.07023987     0.12500
H354        H  0.38601494  0.55182900  0.01299059     0.12500
H355        H  0.34468886  0.55639459  0.09287332     0.12500
H356        H  0.38489747  0.94109347  0.14624334     0.12500
C357        C  0.07501242  0.97850075  0.47768096    -0.16700
C358        C  0.07350699  0.94148133  0.50267386    -0.31900
H359        H  0.04998683  0.98689764  0.45179515     0.12300
H360        H  0.07634813  0.94111948  0.94105849     0.12900
C361        C  0.05071188  0.55870732  0.52314442    -0.16700
C362        C  0.07232142  0.54000305  0.99795532    -0.31900
H363        H  0.05063006  0.53882257  0.07573297     0.12300
H364        H  0.07009686  0.56548310  0.44442150     0.12900
C365        C  0.17279659  0.54411627  0.36620725    -0.13600
C366        C  0.19183034  0.00961722  0.35057287     0.08500
C367        C  0.18178594  0.97412119  0.38045195    -0.13600
C368        C  0.15408441  0.97529040  0.42251825    -0.13600
C369        C  0.13456927  0.01173847  0.43494480     0.08500
C370        C  0.14310077  0.54599086  0.40582611    -0.13600
H371        H  0.18028997  0.57142936  0.34275174     0.12500
H372        H  0.19613001  0.94551117  0.37218333     0.12500
H373        H  0.14821972  0.94755610  0.44579681     0.12500
H374        H  0.13026065  0.57546002  0.41249079     0.12500
C375        C  0.15540574  0.47157529  0.06570508    -0.13600
C376        C  0.13715433  0.01179851  0.04233154     0.08500
C377        C  0.17877944  0.01981755  0.03115661    -0.13600
C378        C  0.20703163  0.02005857  0.07158207    -0.13600
C379        C  0.19448682  0.01263715  0.12397559     0.08500
C380        C  0.15337734  0.00774065  0.13645544    -0.13600
H381        H  0.15035270  0.44354053  0.04653728     0.12500
H382        H  0.19031909  0.02505512  0.99127562     0.12500
H383        H  0.23889574  0.02493378  0.06185570     0.12500
H384        H  0.19946063  0.44316251  0.11632592     0.12500
C385        C  0.10268547  0.50449884  0.00550915    -0.02800
O386        O  0.22502410  0.96333398  0.79274269    -0.72100
O387        O  0.30685086  0.96138142  0.68481108    -0.72300
O388        O  0.30631121  0.95851072  0.79154884    -0.72100
O389        O  0.22460804  0.96655084  0.68603909    -0.72100
O390        O  0.21903963  0.53985285  0.68927929    -0.72100
O391        O  0.30284554  0.53504073  0.79097267    -0.72100
O392        O  0.30014158  0.53701419  0.68492065    -0.72100
O393        O  0.22136578  0.53721526  0.79634165    -0.72200
V394        V  0.26573859  0.96369567  0.73859975     1.35200
V395        V  0.26062544  0.53602432  0.74047923     1.35200
C396        C  0.21266939  0.99645845  0.81025409     0.77200
C397        C  0.32295114  0.99380995  0.66594103     0.77200
C398        C  0.32159851  0.99018446  0.80892837     0.77100
C399        C  0.21392342  0.00084060  0.66622807     0.77100
C400        C  0.43908525  0.98863137  0.98050078    -0.02800
C401        C  0.01230107  0.58364257  0.02872331    -0.02800
O402        O  0.04765973  0.79066437  0.71131805    -0.72100
O403        O  0.04475480  0.71124671  0.82385874    -0.72300
O404        O  0.04808402  0.70934189  0.71744802    -0.71900
O405        O  0.04311773  0.79256814  0.81632232    -0.72100
O406        O  0.50333906  0.79402354  0.82307761    -0.72100
O407        O  0.49182529  0.70992727  0.72795037    -0.72100
O408        O  0.49576470  0.71269546  0.83346224    -0.72100
O409        O  0.49955919  0.79037205  0.71787761    -0.72200
V410        V  0.04461095  0.75083334  0.76722694     1.35200
V411        V  0.49896703  0.75162632  0.77569852     1.35200
C412        C  0.01547460  0.80525488  0.69147673     0.77200
C413        C  0.01161627  0.69667405  0.84174715     0.77200
C414        C  0.01568785  0.69701089  0.69716707     0.77100
C415        C  0.00906350  0.80520608  0.83280358     0.77100
C416        C  0.02493741  0.92000336  0.99656548    -0.02800
C417        C  0.99511277  0.82475105  0.92410749    -0.13600
C418        C  0.00669278  0.83594678  0.87222648     0.08500
C419        C  0.52059728  0.87215967  0.87114175    -0.13600
C420        C  0.52036882  0.89969496  0.91134096    -0.13600
C421        C  0.01233256  0.89226127  0.95199486     0.08500
C422        C  0.99779714  0.85249825  0.96357030    -0.13600
H423        H  0.98582740  0.79393822  0.93455715     0.12500
H424        H  0.50464764  0.87972626  0.83482344     0.12500
H425        H  0.50715553  0.92913219  0.90248789     0.12500
H426        H  0.98980512  0.84190111  0.00341309     0.12500
C427        C  0.49560327  0.84182862  0.62643899    -0.13600
C428        C  0.01826090  0.83668592  0.64810482     0.08500
C429        C  0.05374278  0.85986433  0.64144454    -0.13600
C430        C  0.05882796  0.88702407  0.59789128    -0.13600
C431        C  0.02867686  0.89123338  0.55880997     0.08500
C432        C  0.49435730  0.86639442  0.58019274    -0.13600
H433        H  0.46710177  0.83123352  0.64392898     0.12500
H434        H  0.07805135  0.85659630  0.66979246     0.12500
H435        H  0.08694930  0.90346364  0.59549140     0.12500
H436        H  0.46498360  0.87297252  0.56305867     0.12500
C437        C  0.04891476  0.62820694  0.95603911    -0.13600
C438        C  0.01263728  0.61103095  0.97714071     0.08500
C439        C  0.48448808  0.61653131  0.94962200    -0.13600
C440        C  0.48746486  0.64651753  0.90890722    -0.13600
C441        C  0.01168215  0.66685376  0.88760400     0.08500
C442        C  0.04850260  0.65500604  0.91149378    -0.13600
H443        H  0.07788939  0.62110996  0.97395720     0.12500
H444        H  0.45441347  0.60600268  0.96116764     0.12500
H445        H  0.45990282  0.65686375  0.88950357     0.12500
H446        H  0.07717081  0.66702503  0.89630305     0.12500
C447        C  0.98213381  0.63977369  0.58021643    -0.13600
C448        C  0.01616797  0.61535966  0.56948209     0.08500
C449        C  0.05069900  0.61849731  0.60185383    -0.13600
C450        C  0.05068270  0.64475496  0.64356048    -0.13600
C451        C  0.01621457  0.66824916  0.65431653     0.08500
C452        C  0.98195167  0.66534794  0.62231562    -0.13600
H453        H  0.51008019  0.67139952  0.53282452     0.12500
H454        H  0.07830756  0.60161802  0.59454148     0.12500
H455        H  0.07766831  0.64676021  0.66728267     0.12500
H456        H  0.51426901  0.71443926  0.60597675     0.12500
C457        C  0.46455902  0.94957171  0.98191659    -0.16700
C458        C  0.49759606  0.94568255  0.01278027    -0.31900
H459        H  0.45649870  0.92568248  0.95643190     0.12300
H460        H  0.50197881  0.95863930  0.54291482     0.12900
C461        C  0.46652763  0.52426962  0.97977561    -0.16700
C462        C  0.47722073  0.54489038  0.02274404    -0.31900
H463        H  0.48496899  0.52849710  0.94397379     0.12300
H464        H  0.46050322  0.55385950  0.57547764     0.12900
C465        C  0.38120461  0.01935214  0.85246647    -0.13600
C466        C  0.35276411  0.98813698  0.85035498     0.08500
C467        C  0.35346016  0.95636855  0.88917669    -0.13600
C468        C  0.38135040  0.95668439  0.93046442    -0.13600
C469        C  0.41003904  0.98816642  0.93318485     0.08500
C470        C  0.40965746  0.01921152  0.89274482    -0.13600
H471        H  0.38144123  0.04410637  0.82275200     0.12500
H472        H  0.33158454  0.93202687  0.88857549     0.12500
H473        H  0.38032079  0.93243662  0.96083652     0.12500
H474        H  0.43063833  0.04413918  0.89200862     0.12500
C475        C  0.40594277  0.95674901  0.57372377    -0.13600
C476        C  0.41252307  0.99085948  0.53886111     0.08500
C477        C  0.38310603  0.53505566  0.55337829    -0.13600
C478        C  0.36161552  0.02751415  0.58989240    -0.13600
C479        C  0.35459137  0.99311671  0.62349030     0.08500
C480        C  0.37718648  0.95780680  0.61506389    -0.13600
H481        H  0.42159627  0.92852574  0.56818552     0.12500
H482        H  0.38847752  0.56159659  0.52745388     0.12500
H483        H  0.33677520  0.56501189  0.59770696     0.12500
H484        H  0.37238614  0.93076004  0.64027674     0.12500
C485        C  0.08357570  0.96481507  0.01493985    -0.16700
C486        C  0.06529684  0.94080498  0.98143606    -0.31900
H487        H  0.07096065  0.96308398  0.05465469     0.12300
H488        H  0.10112238  0.92916446  0.51973872     0.12900
C489        C  0.04766016  0.55319416  0.03639627    -0.16700
C490        C  0.07590072  0.55051712  0.48252827    -0.31900
H491        H  0.05248334  0.53952236  0.55915721     0.12300
H492        H  0.06693903  0.55149280  0.95781231     0.12900
C493        C  0.16837053  0.53995748  0.88556847    -0.13600
C494        C  0.18253449  0.99692646  0.85442783     0.08500
C495        C  0.17846345  0.96323605  0.89010080    -0.13600
C496        C  0.15325103  0.96499831  0.93498860    -0.13600
C497        C  0.12970376  0.99985922  0.94441241     0.08500
C498        C  0.14406196  0.53946404  0.93103480    -0.13600
H499        H  0.17882953  0.56881210  0.86848725     0.12500
H500        H  0.19632228  0.93608450  0.88467110     0.12500
H501        H  0.15288874  0.93934198  0.96328259     0.12500
H502        H  0.13724620  0.56819319  0.94800425     0.12500
C503        C  0.11644488  0.48730105  0.58220302    -0.13600
C504        C  0.13258091  0.00987663  0.53420801     0.08500
C505        C  0.16881900  0.03264934  0.53480644    -0.13600
C506        C  0.19466184  0.02995264  0.57803509    -0.13600
C507        C  0.18506175  0.00467828  0.62234924     0.08500
C508        C  0.14781454  0.98431529  0.62438029    -0.13600
H509        H  0.08809259  0.47137111  0.58587635     0.12500
H510        H  0.17780342  0.05233749  0.50135605     0.12500
H511        H  0.22278254  0.04693165  0.57630623     0.12500
H512        H  0.13405596  0.46583717  0.66024200     0.12500
C513        C  0.60786881  0.99238891  0.49018389    -0.02800
O514        O  0.72472315  0.46680601  0.30386589    -0.72100
O515        O  0.81088730  0.46849277  0.20175857    -0.72300
O516        O  0.80565236  0.46883617  0.30786398    -0.72100
O517        O  0.72970162  0.46691235  0.19699654    -0.72100
O518        O  0.73047070  0.02962480  0.17933793    -0.72100
O519        O  0.81251459  0.02893201  0.28391205    -0.72100
O520        O  0.81199610  0.03172438  0.17794125    -0.72100
O521        O  0.73055282  0.02592921  0.28620773    -0.72200
V522        V  0.76763182  0.46904796  0.25249023     1.35200
V523        V  0.77130826  0.02775540  0.23197361     1.35200
C524        C  0.71038583  0.49936057  0.32083651     0.77200
C525        C  0.82313148  0.50147921  0.17969254     0.77200
C526        C  0.81894283  0.50208634  0.32285944     0.77100
C527        C  0.71538403  0.49942582  0.17610280     0.77100
C528        C  0.93716266  0.50081597  0.49211062    -0.02800
C529        C  0.52079667  0.07473831  0.51459926    -0.02800
O530        O  0.55441981  0.27815248  0.19444024    -0.72100
O531        O  0.55322326  0.19504268  0.30327512    -0.72300
O532        O  0.55269571  0.19696897  0.19715417    -0.71900
O533        O  0.55413273  0.27608030  0.30066391    -0.72100
O534        O  0.99045826  0.29933711  0.31284413    -0.72100
O535        O  0.98905609  0.21435011  0.21622584    -0.72100
O536        O  0.98829179  0.21788167  0.32218232    -0.72100
O537        O  0.99147737  0.29548924  0.20745830    -0.72200
V538        V  0.55234686  0.23655396  0.24889707     1.35200
V539        V  0.99110070  0.25671021  0.26467844     1.35200
C540        C  0.52168802  0.29291694  0.17617283     0.77200
C541        C  0.52016619  0.18169346  0.32314050     0.77200
C542        C  0.51926454  0.18511591  0.17942598     0.77100
C543        C  0.52113699  0.29006536  0.31868410     0.77100
C544        C  0.51925112  0.41158821  0.47729392    -0.02800
C545        C  0.55645429  0.33040066  0.38472064    -0.13600
C546        C  0.52080451  0.32089442  0.35852581     0.08500
C547        C  0.01173719  0.38007196  0.36681484    -0.13600
C548        C  0.01316007  0.40654753  0.40868076    -0.13600
C549        C  0.51965386  0.38094321  0.43399547     0.08500
C550        C  0.55575176  0.35958054  0.42258195    -0.13600
H551        H  0.58478506  0.31493529  0.37644270     0.12500
H552        H  0.00210054  0.39151048  0.32815897     0.12500
H553        H  0.00600376  0.43816832  0.40045509     0.12500
H554        H  0.58363163  0.36554584  0.44296663     0.12500
C555        C  0.98807071  0.35183762  0.12238133    -0.13600
C556        C  0.52225950  0.32412531  0.13215266     0.08500
C557        C  0.55916302  0.33903341  0.11035019    -0.13600
C558        C  0.55946126  0.36648801  0.06632822    -0.13600
C559        C  0.52269579  0.38007076  0.04333968     0.08500
C560        C  0.98732678  0.37796643  0.07797033    -0.13600
H561        H  0.95945976  0.34004473  0.13811140     0.12500
H562        H  0.58792809  0.32872246  0.12655178     0.12500
H563        H  0.58852908  0.37578344  0.04943009     0.12500
H564        H  0.95829457  0.38417423  0.05973187     0.12500
C565        C  0.55751110  0.11229674  0.43597044    -0.13600
C566        C  0.52090337  0.09778653  0.45965232     0.08500
C567        C  0.98209287  0.12439125  0.44260071    -0.13600
C568        C  0.98342676  0.15234530  0.39951490    -0.13600
C569        C  0.52034586  0.15124985  0.36809498     0.08500
C570        C  0.55723989  0.13785712  0.39030960    -0.13600
H571        H  0.58644850  0.10534036  0.45408827     0.12500
H572        H  0.95332240  0.11000216  0.45229419     0.12500
H573        H  0.95617707  0.15768236  0.37662697     0.12500
H574        H  0.58601559  0.14848603  0.37370589     0.12500
C575        C  0.48561896  0.13169911  0.05978077    -0.13600
C576        C  0.51782261  0.10413954  0.05230996     0.08500
C577        C  0.54984289  0.10310122  0.08906158    -0.13600
C578        C  0.55017694  0.12926679  0.13040307    -0.13600
C579        C  0.51820883  0.15661502  0.13697782     0.08500
C580        C  0.48564912  0.15736109  0.10182751    -0.13600
H581        H  0.08052890  0.14170815  0.05194188     0.12500
H582        H  0.57509603  0.08246839  0.08648281     0.12500
H583        H  0.57541488  0.12797544  0.15746485     0.12500
H584        H  0.08140394  0.18728018  0.12421007     0.12500
C585        C  0.96144569  0.46119244  0.48697354    -0.16700
C586        C  0.99487253  0.45318206  0.51542397    -0.31900
H587        H  0.95293782  0.44048732  0.45729979     0.12300
H588        H  0.99448782  0.47035842  0.04595089     0.12900
C589        C  0.97375817  0.03194944  0.47704057    -0.16700
C590        C  0.98088494  0.05540621  0.51912108    -0.31900
H591        H  0.99341005  0.03612122  0.44235757     0.12300
H592        H  0.97946227  0.04291835  0.06381719     0.12900
C593        C  0.87724638  0.53398120  0.36664858    -0.13600
C594        C  0.84875780  0.50268640  0.36536248     0.08500
C595        C  0.84897507  0.47159332  0.40490196    -0.13600
C596        C  0.87719407  0.47179708  0.44526927    -0.13600
C597        C  0.90665909  0.50263193  0.44667249     0.08500
C598        C  0.90616125  0.53382723  0.40652302    -0.13600
H599        H  0.87760832  0.55820861  0.33621759     0.12500
H600        H  0.82695978  0.44732434  0.40494768     0.12500
H601        H  0.87630428  0.44750704  0.47560220     0.12500
H602        H  0.92782305  0.55822761  0.40533675     0.12500
C603        C  0.90189354  0.46587751  0.08074604    -0.13600
C604        C  0.90562685  0.49997719  0.04534158     0.08500
C605        C  0.89554798  0.03995626  0.04897219    -0.13600
C606        C  0.85803601  0.53611952  0.10164986    -0.13600
C607        C  0.85359067  0.50169922  0.13588167     0.08500
C608        C  0.87605846  0.46667405  0.12521166    -0.13600
H609        H  0.91758259  0.43802015  0.07343833     0.12500
H610        H  0.90086718  0.06882342  0.02793461     0.12500
H611        H  0.85464304  0.06652896  0.10392301     0.12500
H612        H  0.87307387  0.43954362  0.15074299     0.12500
C613        C  0.56577329  0.46545908  0.50731228    -0.16700
C614        C  0.55669501  0.43891290  0.47071879    -0.31900
H615        H  0.54740588  0.46456576  0.54342373     0.12300
H616        H  0.57035764  0.43342487  0.93797316     0.12900
C617        C  0.55727231  0.04563981  0.52241548    -0.16700
C618        C  0.58159825  0.04044515  0.97116547    -0.31900
H619        H  0.55200103  0.02591457  0.04257600     0.12300
H620        H  0.56470314  0.03193080  0.44307543     0.12900
C621        C  0.66920741  0.02622498  0.36544191    -0.13600
C622        C  0.67937681  0.49866802  0.36407320     0.08500
C623        C  0.67668580  0.46559883  0.40102664    -0.13600
C624        C  0.64948825  0.46637290  0.44416063    -0.13600
C625        C  0.62326860  0.49972413  0.45091731     0.08500
C626        C  0.64318925  0.02585446  0.40930683    -0.13600
H627        H  0.67695775  0.05512569  0.34594351     0.12500
H628        H  0.69655844  0.43960795  0.39751059     0.12500
H629        H  0.64900954  0.44087161  0.47272236     0.12500
H630        H  0.63317310  0.05490432  0.42250911     0.12500
C631        C  0.64460821  0.03661338  0.05461838    -0.13600
C632        C  0.63375242  0.49542361  0.04497328     0.08500
C633        C  0.64242653  0.53253063  0.06724439    -0.13600
C634        C  0.66873022  0.53399690  0.11010266    -0.13600
C635        C  0.68761178  0.49852200  0.13086527     0.08500
C636        C  0.68105460  0.46199676  0.10664172    -0.13600
H637        H  0.63166147  0.06559220  0.04236661     0.12500
H638        H  0.62957414  0.56047304  0.05102913     0.12500
H639        H  0.67435813  0.56290825  0.12687774     0.12500
H640        H  0.67540677  0.06215951  0.11907745     0.12500
C641        C  0.61015627  0.00357119  0.97601871    -0.02800
O642        O  0.72688351  0.46391825  0.79584280    -0.72100
O643        O  0.81139202  0.46862668  0.69241511    -0.72300
O644        O  0.80767318  0.46706995  0.79893194    -0.72100
O645        O  0.72924224  0.46673447  0.68956367    -0.72100
O646        O  0.73808424  0.04171072  0.67283348    -0.72100
O647        O  0.81997685  0.04518925  0.77708653    -0.72100
O648        O  0.81930124  0.04174892  0.67052567    -0.72100
O649        O  0.73865348  0.04429879  0.77922790    -0.72200
V650        V  0.76881709  0.46783297  0.74387536     1.35200
V651        V  0.77907182  0.04214926  0.72503510     1.35200
C652        C  0.71327414  0.49582255  0.81510898     0.77200
C653        C  0.82351613  0.50206003  0.67164804     0.77200
C654        C  0.82030933  0.50027379  0.81531890     0.77100
C655        C  0.71377693  0.49972885  0.67148420     0.77100
C656        C  0.93088421  0.49995858  0.99342360    -0.02800
C657        C  0.51716578  0.07734672  0.00445028    -0.02800
O658        O  0.54898577  0.28831327  0.68713386    -0.72100
O659        O  0.54929785  0.21124995  0.80413160    -0.72300
O660        O  0.55183798  0.20695755  0.69806592    -0.71900
O661        O  0.54606090  0.29240701  0.79331917    -0.72100
O662        O  0.97438513  0.29372731  0.81190669    -0.72100
O663        O  0.97613554  0.21057121  0.71270263    -0.72100
O664        O  0.97551100  0.21209907  0.81988657    -0.72100
O665        O  0.97606806  0.29217221  0.70590718    -0.72200
V666        V  0.54775941  0.24973140  0.74557451     1.35200
V667        V  0.97669178  0.25204001  0.76257777     1.35200
C668        C  0.51605349  0.30123418  0.66706038     0.77200
C669        C  0.51654495  0.19581790  0.82240671     0.77200
C670        C  0.51968604  0.19249507  0.67993746     0.77100
C671        C  0.51204246  0.30403780  0.81108893     0.77100
C672        C  0.52092103  0.40696525  0.99177018    -0.02800
C673        C  0.50881436  0.31358527  0.90640370    -0.13600
C674        C  0.50992722  0.33111217  0.85523582     0.08500
C675        C  0.00499147  0.37796677  0.86190843    -0.13600
C676        C  0.00714092  0.40459556  0.90352543    -0.13600
C677        C  0.51214032  0.38043733  0.94398328     0.08500
C678        C  0.51016778  0.33756658  0.94994454    -0.13600
H679        H  0.50833606  0.28090849  0.91272687     0.12500
H680        H  0.00325906  0.39019392  0.82153019     0.12500
H681        H  0.00730545  0.43688645  0.89394129     0.12500
H682        H  0.51139090  0.32141218  0.98795241     0.12500
C683        C  0.98010804  0.34594714  0.61193559    -0.13600
C684        C  0.51648724  0.33093383  0.62073423     0.08500
C685        C  0.55341964  0.34683107  0.60046929    -0.13600
C686        C  0.55425759  0.37357839  0.55578672    -0.13600
C687        C  0.51808961  0.38602755  0.53023804     0.08500
C688        C  0.98537819  0.37294701  0.56835880    -0.13600
H689        H  0.95186880  0.32939432  0.61682869     0.12500
H690        H  0.58196154  0.33799976  0.61859731     0.12500
H691        H  0.58356481  0.38339494  0.54026006     0.12500
H692        H  0.96081155  0.37666357  0.54047150     0.12500
C693        C  0.55175172  0.13081497  0.94181004    -0.13600
C694        C  0.51746585  0.10642903  0.95427177     0.08500
C695        C  0.98191408  0.13607483  0.96254561    -0.13600
C696        C  0.97772562  0.16145089  0.91711117    -0.13600
C697        C  0.51692001  0.16525764  0.86767387     0.08500
C698        C  0.55180741  0.15905853  0.89853830    -0.13600
H699        H  0.57867088  0.12797500  0.96584711     0.12500
H700        H  0.95579230  0.13135555  0.98863782     0.12500
H701        H  0.94874443  0.17612971  0.90934096     0.12500
H702        H  0.57898610  0.17669115  0.88993412     0.12500
C703        C  0.52271903  0.14836320  0.54668269    -0.13600
C704        C  0.52119865  0.10591964  0.55849124     0.08500
C705        C  0.51981178  0.09281116  0.61255518    -0.13600
C706        C  0.51992886  0.12073197  0.65253109    -0.13600
C707        C  0.52145898  0.16236719  0.63943339     0.08500
C708        C  0.52279766  0.17588960  0.58649119    -0.13600
H709        H  0.94982049  0.12592914  0.56124836     0.12500
H710        H  0.51820211  0.06085879  0.62395618     0.12500
H711        H  0.51846254  0.10987943  0.69357945     0.12500
H712        H  0.94658987  0.17260926  0.63320389     0.12500
C713        C  0.95513871  0.46078592  0.98508270    -0.16700
C714        C  0.98831714  0.45149470  0.01304034    -0.31900
H715        H  0.94781596  0.44225871  0.95246571     0.12300
H716        H  0.00121408  0.47344114  0.54687260     0.12900
C717        C  0.97188228  0.04162012  0.98137257    -0.16700
C718        C  0.98776317  0.05692795  0.02554363    -0.31900
H719        H  0.98513521  0.05112165  0.94329221     0.12300
H720        H  0.96337708  0.05079229  0.55544392     0.12900
C721        C  0.87302152  0.53497403  0.86699419    -0.13600
C722        C  0.84807897  0.50127333  0.86037006     0.08500
C723        C  0.84798856  0.46945014  0.89889095    -0.13600
C724        C  0.87292501  0.47087913  0.94270688    -0.13600
C725        C  0.90025071  0.50323049  0.94810762     0.08500
C726        C  0.89911569  0.53587746  0.91010704    -0.13600
H727        H  0.87287346  0.56036118  0.83824742     0.12500
H728        H  0.82819869  0.44364366  0.89551401     0.12500
H729        H  0.87218084  0.44565526  0.97170997     0.12500
H730        H  0.91837830  0.56201239  0.91301163     0.12500
C731        C  0.90989244  0.46979349  0.58212097    -0.13600
C732        C  0.91150948  0.50216758  0.54362777     0.08500
C733        C  0.89021370  0.03220854  0.53044615    -0.13600
C734        C  0.85770769  0.53613003  0.59282979    -0.13600
C735        C  0.85523605  0.50313122  0.62962841     0.08500
C736        C  0.88197859  0.47027004  0.62435090    -0.13600
H737        H  0.92885322  0.44325272  0.57905956     0.12500
H738        H  0.89115143  0.05672272  0.50042829     0.12500
H739        H  0.84762698  0.06388651  0.57793252     0.12500
H740        H  0.88083248  0.44449733  0.65248361     0.12500
C741        C  0.57732366  0.45456391  0.01356900    -0.16700
C742        C  0.56020102  0.43057840  0.97878992    -0.31900
H743        H  0.56528052  0.45271197  0.05384296     0.12300
H744        H  0.57334619  0.43971915  0.43340069     0.12900
C745        C  0.55232295  0.04651082  0.00766679    -0.16700
C746        C  0.57588831  0.02630524  0.48289842    -0.31900
H747        H  0.56566032  0.03656696  0.56257282     0.12300
H748        H  0.58245062  0.05925398  0.93491626     0.12900
C749        C  0.68853353  0.04335983  0.87326997    -0.13600
C750        C  0.68413387  0.49368360  0.86008301     0.08500
C751        C  0.67184548  0.45624910  0.88389050    -0.13600
C752        C  0.64608907  0.45476781  0.92854177    -0.13600
C753        C  0.63062998  0.49072071  0.94906392     0.08500
C754        C  0.66229772  0.04049573  0.91697445    -0.13600
H755        H  0.70610155  0.07071804  0.86578103     0.12500
H756        H  0.68295986  0.42810101  0.86884053     0.12500
H757        H  0.63917818  0.42549795  0.94742317     0.12500
H758        H  0.65980183  0.06604378  0.94199470     0.12500
C759        C  0.66362289  0.96540340  0.54993854    -0.13600
C760        C  0.62379333  0.50134039  0.54896927     0.08500
C761        C  0.64867169  0.53520559  0.55567320    -0.13600
C762        C  0.67714409  0.53504991  0.59624277    -0.13600
C763        C  0.68249715  0.50049915  0.63011740     0.08500
C764        C  0.65791583  0.46671768  0.62390597    -0.13600
H765        H  0.65897122  0.93583162  0.53459229     0.12500
H766        H  0.64625102  0.56172705  0.52898620     0.12500
H767        H  0.69583765  0.56156986  0.60014855     0.12500
H768        H  0.70815077  0.94172581  0.60341406     0.12500
C769        C  0.59552586  0.50077054  0.50093609    -0.02800
O770        O  0.73085288  0.96034397  0.28490574    -0.72100
O771        O  0.81609627  0.96608460  0.18170485    -0.72300
O772        O  0.81251359  0.96318158  0.28809007    -0.72100
O773        O  0.73459523  0.96419761  0.17732680    -0.72100
O774        O  0.72612041  0.53258433  0.19421679    -0.72100
O775        O  0.80589082  0.53462746  0.30075494    -0.72100
O776        O  0.80738852  0.53413111  0.19455976    -0.72100
O777        O  0.72400433  0.53257077  0.30079237    -0.72200
V778        V  0.77338758  0.96469025  0.23299148     1.35200
V779        V  0.76585375  0.53222373  0.24781822     1.35200
C780        C  0.71690955  0.99214811  0.30437739     0.77200
C781        C  0.82813838  0.99976316  0.16158441     0.77200
C782        C  0.82640858  0.99604402  0.30411479     0.77100
C783        C  0.71957074  0.99732628  0.15890582     0.77100
C784        C  0.94341289  0.99606551  0.47719330    -0.02800
C785        C  0.51387802  0.58523442  0.53327158    -0.02800
O786        O  0.54630134  0.78075928  0.20749291    -0.72100
O787        O  0.54259174  0.70029802  0.31793532    -0.72300
O788        O  0.54497715  0.69954203  0.21197859    -0.71900
O789        O  0.54305756  0.78097300  0.31315339    -0.72100
O790        O  0.99885237  0.80079904  0.31112322    -0.72100
O791        O  0.99081903  0.71860635  0.21193187    -0.72100
O792        O  0.99180152  0.71977930  0.31801360    -0.72100
O793        O  0.99814704  0.79963364  0.20534033    -0.72200
V794        V  0.54288685  0.74040138  0.26246088     1.35200
V795        V  0.99622878  0.75960635  0.26149783     1.35200
C796        C  0.51438293  0.79482417  0.18635694     0.77200
C797        C  0.50931595  0.68842875  0.33850666     0.77200
C798        C  0.51218925  0.68565954  0.19464791     0.77100
C799        C  0.50966670  0.79569504  0.32879328     0.77100
C800        C  0.52623800  0.90532072  0.50107986    -0.02800
C801        C  0.51169987  0.80816186  0.42367761    -0.13600
C802        C  0.50879770  0.82388734  0.37175335     0.08500
C803        C  0.02975926  0.88104773  0.36291733    -0.13600
C804        C  0.03002953  0.90628502  0.40593017    -0.13600
C805        C  0.51513633  0.87659137  0.45654308     0.08500
C806        C  0.51480907  0.83386699  0.46537741    -0.13600
H807        H  0.51285578  0.77567221  0.43187919     0.12500
H808        H  0.02529387  0.89418701  0.32338504     0.12500
H809        H  0.02672327  0.93852037  0.39783948     0.12500
H810        H  0.51893432  0.81933212  0.50402586     0.12500
C811        C  0.00096990  0.86785585  0.13336063    -0.13600
C812        C  0.51777889  0.82651585  0.14340573     0.08500
C813        C  0.55531064  0.84561371  0.13375250    -0.13600
C814        C  0.56015420  0.87461915  0.09252400    -0.13600
C815        C  0.52737928  0.88580741  0.05937149     0.08500
C816        C  0.99930657  0.89463868  0.08930876    -0.13600
H817        H  0.97646417  0.86831584  0.16240659     0.12500
H818        H  0.58146175  0.83766840  0.15770523     0.12500
H819        H  0.59048788  0.88620866  0.08544245     0.12500
H820        H  0.97310261  0.91421193  0.08632509     0.12500
C821        C  0.54833596  0.62438274  0.45465288    -0.13600
C822        C  0.51231044  0.61034193  0.48002693     0.08500
C823        C  0.98261792  0.62647638  0.43986136    -0.13600
C824        C  0.98496393  0.65399064  0.39611504    -0.13600
C825        C  0.50965276  0.66046488  0.38590725     0.08500
C826        C  0.54701234  0.64827777  0.40786193    -0.13600
H827        H  0.57780714  0.61744190  0.47134711     0.12500
H828        H  0.95362018  0.61251161  0.44912735     0.12500
H829        H  0.95822417  0.65920975  0.37220510     0.12500
H830        H  0.57550955  0.65810751  0.38961621     0.12500
C831        C  0.54993880  0.60966421  0.09761956    -0.13600
C832        C  0.51379659  0.59791586  0.07313520     0.08500
C833        C  0.47704296  0.61589094  0.08978207    -0.13600
C834        C  0.47638844  0.64323637  0.13028960    -0.13600
C835        C  0.51256617  0.65449277  0.15440230     0.08500
C836        C  0.54929657  0.63715734  0.13780056    -0.13600
H837        H  0.94893527  0.61543468  0.09140961     0.12500
H838        H  0.44871062  0.60956243  0.07067047     0.12500
H839        H  0.44757765  0.65650441  0.14164168     0.12500
H840        H  0.95387075  0.66375912  0.16048652     0.12500
C841        C  0.96941122  0.95722645  0.47574117    -0.16700
C842        C  0.99906311  0.94891787  0.51073639    -0.31900
H843        H  0.96528147  0.93731627  0.44366543     0.12300
H844        H  0.00059645  0.97308967  0.03885557     0.12900
C845        C  0.96856011  0.53552681  0.48683196    -0.16700
C846        C  0.97741979  0.56183491  0.52452763    -0.31900
H847        H  0.98761165  0.53646128  0.45134981     0.12300
H848        H  0.96111869  0.54983596  0.07063229     0.12900
C849        C  0.88329051  0.02961948  0.35114851    -0.13600
C850        C  0.85767754  0.99608707  0.34587734     0.08500
C851        C  0.86140536  0.96278218  0.38186079    -0.13600
C852        C  0.88911571  0.96337552  0.42305185    -0.13600
C853        C  0.91527002  0.99667298  0.42877364     0.08500
C854        C  0.91209584  0.02976950  0.39164914    -0.13600
H855        H  0.88105902  0.05578525  0.32384480     0.12500
H856        H  0.84194885  0.93665478  0.37917641     0.12500
H857        H  0.88994920  0.93762480  0.45120633     0.12500
H858        H  0.93085742  0.05627986  0.39445269     0.12500
C859        C  0.90519615  0.96743882  0.05922106    -0.13600
C860        C  0.91480070  0.00451676  0.03210820     0.08500
C861        C  0.88299956  0.53500485  0.05663301    -0.13600
C862        C  0.86888197  0.03864601  0.09236136    -0.13600
C863        C  0.85939738  0.00161007  0.11898942     0.08500
C864        C  0.87807345  0.96606292  0.10225136    -0.13600
H865        H  0.91668313  0.93908915  0.04557080     0.12500
H866        H  0.88463325  0.56169696  0.03007612     0.12500
H867        H  0.84094617  0.56350546  0.10847836     0.12500
H868        H  0.87079484  0.93692362  0.12142023     0.12500
C869        C  0.58247248  0.95609591  0.51139198    -0.16700
C870        C  0.56508193  0.92811273  0.48239657    -0.31900
H871        H  0.57165595  0.95795622  0.55199982     0.12300
H872        H  0.58267408  0.94671344  0.05229749     0.12900
C873        C  0.55261480  0.55869359  0.53721498    -0.16700
C874        C  0.57319300  0.52667378  0.99224064    -0.31900
H875        H  0.55268395  0.52524757  0.07066237     0.12300
H876        H  0.55025120  0.53997454  0.45978048     0.12900
C877        C  0.65369595  0.53206272  0.37050063    -0.13600
C878        C  0.68631744  0.99028275  0.34829671     0.08500
C879        C  0.67610971  0.95360998  0.37598827    -0.13600
C880        C  0.64968146  0.95321209  0.42034188    -0.13600
C881        C  0.63164824  0.98937361  0.43713298     0.08500
C882        C  0.62609979  0.53266555  0.41301844    -0.13600
H883        H  0.65526824  0.55809775  0.34283238     0.12500
H884        H  0.68974144  0.92540157  0.36459987     0.12500
H885        H  0.64471933  0.92477431  0.44238671     0.12500
H886        H  0.60817605  0.55989511  0.41647213     0.12500
C887        C  0.65502740  0.46059370  0.06397047    -0.13600
C888        C  0.63726319  0.00206267  0.02574619     0.08500
C889        C  0.65955361  0.96656445  0.03982019    -0.13600
C890        C  0.68512903  0.96460515  0.08374340    -0.13600
C891        C  0.69083767  0.99868191  0.11373237     0.08500
C892        C  0.67064572  0.03486603  0.09809771    -0.13600
H893        H  0.65083475  0.43176717  0.04631052     0.12500
H894        H  0.65682295  0.93997981  0.01684022     0.12500
H895        H  0.70112596  0.93657420  0.09354121     0.12500
H896        H  0.69613591  0.43436728  0.12057221     0.12500
C897        C  0.60394493  0.49157341  0.99947265    -0.02800
O898        O  0.73593267  0.97859482  0.78034677    -0.72100
O899        O  0.82362842  0.97643279  0.68394883    -0.72300
O900        O  0.81619013  0.97978397  0.78902715    -0.72100
O901        O  0.74324341  0.97612236  0.67552013    -0.72100
O902        O  0.72584636  0.53237327  0.68958423    -0.72100
O903        O  0.80743422  0.53286381  0.79335898    -0.72100
O904        O  0.80726881  0.53429622  0.68706759    -0.72100
O905        O  0.72629452  0.52959066  0.79606708    -0.72200
V906        V  0.77978615  0.97903866  0.73207261     1.35200
V907        V  0.76671763  0.53098911  0.74151759     1.35200
C908        C  0.72343862  0.01146232  0.79796261     0.77200
C909        C  0.83490763  0.00826196  0.65862454     0.77200
C910        C  0.83049736  0.01306237  0.80260970     0.77100
C911        C  0.72779096  0.00822884  0.65512283     0.77100
C912        C  0.94095343  0.00684980  0.98117547    -0.02800
C913        C  0.51526722  0.57140068  0.02461790    -0.02800
O914        O  0.56535442  0.78536244  0.71414616    -0.72100
O915        O  0.56129300  0.70507071  0.82831856    -0.72300
O916        O  0.55764343  0.70424001  0.72203916    -0.71900
O917        O  0.56901166  0.78614401  0.82100386    -0.72100
O918        O  0.97703151  0.79010293  0.81570636    -0.72100
O919        O  0.98217896  0.71093999  0.71327020    -0.72100
O920        O  0.97891300  0.70891011  0.82010802    -0.72100
O921        O  0.98163901  0.79189065  0.70931626    -0.72200
V922        V  0.56210995  0.74535798  0.77150622     1.35200
V923        V  0.98120192  0.75037912  0.76466575     1.35200
C924        C  0.53286129  0.80091617  0.69574532     0.77200
C925        C  0.52768267  0.69505842  0.85018279     0.77200
C926        C  0.52276327  0.69354580  0.70790178     0.77100
C927        C  0.53800515  0.80419469  0.83851662     0.77100
C928        C  0.53272201  0.91501867  0.01043761    -0.02800
C929        C  0.56463197  0.82770609  0.92290478    -0.13600
C930        C  0.54167648  0.83538370  0.87750552     0.08500
C931        C  0.01672255  0.87622294  0.85881471    -0.13600
C932        C  0.01818238  0.90444620  0.89802168    -0.13600
C933        C  0.53752856  0.88920898  0.96105265     0.08500
C934        C  0.56272753  0.85431208  0.96400449    -0.13600
H935        H  0.58236775  0.80008994  0.92777826     0.12500
H936        H  0.02409049  0.88562820  0.81822377     0.12500
H937        H  0.02594506  0.93539233  0.88620032     0.12500
H938        H  0.58013082  0.84660785  0.99894997     0.12500
C939        C  0.98705071  0.84228132  0.61146455    -0.13600
C940        C  0.53284026  0.82974292  0.64859831     0.08500
C941        C  0.56901162  0.84381332  0.62363176    -0.13600
C942        C  0.56778811  0.86917053  0.57723341    -0.13600
C943        C  0.53024069  0.88089378  0.55460328     0.08500
C944        C  0.99222306  0.86908803  0.56744030    -0.13600
H945        H  0.95934250  0.82478977  0.61569379     0.12500
H946        H  0.59825018  0.83467194  0.63944798     0.12500
H947        H  0.59622708  0.87831912  0.55836872     0.12500
H948        H  0.96816608  0.87157105  0.53867853     0.12500
C949        C  0.55705315  0.61958767  0.96203075    -0.13600
C950        C  0.51936147  0.60139346  0.97599970     0.08500
C951        C  0.97566634  0.62489853  0.95439277    -0.13600
C952        C  0.97524232  0.65165436  0.90979743    -0.13600
C953        C  0.52525741  0.66319934  0.89368160     0.08500
C954        C  0.56009414  0.64941321  0.92072637    -0.13600
H955        H  0.58428815  0.61085691  0.98328818     0.12500
H956        H  0.94666228  0.61562655  0.97154921     0.12500
H957        H  0.94626687  0.66111155  0.89341740     0.12500
H958        H  0.58959662  0.66225841  0.91067342     0.12500
C959        C  0.51210886  0.65660544  0.57166270    -0.13600
C960        C  0.51319753  0.61385858  0.57984193     0.08500
C961        C  0.51524173  0.59793460  0.63266957    -0.13600
C962        C  0.51815199  0.62357080  0.67493447    -0.13600
C963        C  0.51828255  0.66563662  0.66533493     0.08500
C964        C  0.51455057  0.68188763  0.61378903    -0.13600
H965        H  0.95548695  0.63908772  0.55564281     0.12500
H966        H  0.51555889  0.56549791  0.64113183     0.12500
H967        H  0.52064019  0.61063700  0.71489647     0.12500
H968        H  0.95511281  0.68362051  0.62907212     0.12500
C969        C  0.96572092  0.96819271  0.97198292    -0.16700
C970        C  0.99528019  0.95527328  0.00473934    -0.31900
H971        H  0.96032486  0.95181909  0.93676835     0.12300
H972        H  0.00140199  0.96876784  0.54357190     0.12900
C973        C  0.96269652  0.53436005  0.99055469    -0.16700
C974        C  0.97464908  0.55615288  0.03186587    -0.31900
H975        H  0.97982990  0.53822246  0.95361560     0.12300
H976        H  0.95978774  0.56123734  0.56101865     0.12900
C977        C  0.88177561  0.04755066  0.85774406    -0.13600
C978        C  0.85766392  0.01378129  0.84834128     0.08500
C979        C  0.85873190  0.98009784  0.88402446    -0.13600
C980        C  0.88427781  0.97941061  0.92716301    -0.13600
C981        C  0.91075182  0.01185634  0.93545150     0.08500
C982        C  0.90814028  0.04666924  0.90084195    -0.13600
H983        H  0.88072219  0.07433304  0.83135743     0.12500
H984        H  0.83970246  0.95401304  0.87866432     0.12500
H985        H  0.88441055  0.95253487  0.95340959     0.12500
H986        H  0.92618785  0.07328632  0.90652582     0.12500
C987        C  0.91177864  0.96581532  0.56450959    -0.13600
C988        C  0.91480883  0.99741258  0.52531838     0.08500
C989        C  0.88516617  0.53550192  0.55028483    -0.13600
C990        C  0.86573494  0.03659809  0.57497921    -0.13600
C991        C  0.86377257  0.00550376  0.61438927     0.08500
C992        C  0.88652135  0.96990985  0.60854952    -0.13600
H993        H  0.92837513  0.93774475  0.56149776     0.12500
H994        H  0.88520974  0.56079023  0.52136849     0.12500
H995        H  0.83732039  0.56178091  0.59577072     0.12500
H996        H  0.88461880  0.94504181  0.63798322     0.12500
C997        C  0.58113632  0.96764507  0.97337068    -0.16700
C998        C  0.57022069  0.94188645  0.01385415    -0.31900
H999        H  0.56443815  0.96632962  0.93680046     0.12300
H1000       H  0.57481463  0.92638823  0.44154879     0.12900
C1001       C  0.54972684  0.54017525  0.03164821    -0.16700
C1002       C  0.56610560  0.53667135  0.49691911    -0.31900
H1003       H  0.56741876  0.55470994  0.57509355     0.12300
H1004       H  0.56781584  0.53907392  0.95244512     0.12900
C1005       C  0.67088535  0.52938650  0.88225446    -0.13600
C1006       C  0.69303146  0.01057975  0.84077075     0.08500
C1007       C  0.67076090  0.97511995  0.85216036    -0.13600
C1008       C  0.64425706  0.97232961  0.89533541    -0.13600
C1009       C  0.63911975  0.00523522  0.92825012     0.08500
C1010       C  0.64541029  0.52790647  0.92653345    -0.13600
H1011       H  0.68094186  0.55867061  0.86611812     0.12500
H1012       H  0.67421319  0.94915592  0.82798954     0.12500
H1013       H  0.62859949  0.94391128  0.90297779     0.12500
H1014       H  0.63744701  0.55634602  0.94350963     0.12500
C1015       C  0.62880783  0.46716478  0.58430489    -0.13600
C1016       C  0.64042684  0.99911262  0.53155541     0.08500
C1017       C  0.64935294  0.03722306  0.55114934    -0.13600
C1018       C  0.67795199  0.04054769  0.59119068    -0.13600
C1019       C  0.69874518  0.00605889  0.61153886     0.08500
C1020       C  0.69188304  0.96871339  0.58960975    -0.13600
H1021       H  0.61139955  0.43991409  0.58077359     0.12500
H1022       H  0.63449369  0.06449313  0.53577700     0.12500
H1023       H  0.68355593  0.06998536  0.60646709     0.12500
H1024       H  0.66125407  0.43978633  0.64968790     0.12500
loop_ 
_geom_bond_atom_site_label_1 
_geom_bond_atom_site_label_2 
_geom_bond_distance 
_geom_bond_site_symmetry_2 
_ccdc_geom_bond_type 
C1          C357   1.531   1_545  S
C1          C234   1.530       .  S
C1          C369   1.539       .  S
C1          C504   1.553       .  S
O2           V10   1.891       .  S
O2           C12   1.263       .  A
O3           V10   1.897       .  S
O3           C13   1.263       .  A
O4           V10   1.904       .  S
O4           C14   1.265       .  A
O5           V10   1.902       .  S
O5           C15   1.267       .  A
O6           V11   1.888       .  S
O6          C271   1.260       .  A
O7           V11   1.894       .  S
O7          C270   1.263       .  A
O8           V11   1.899       .  S
O8          C269   1.264       .  A
O9           V11   1.900       .  S
O9          C268   1.266       .  A
V10         V267   2.086       .  T
V11         V266   2.089   1_545  T
C12         O265   1.264       .  A
C12         C110   1.469       .  S
C13         O264   1.265       .  A
C13          C95   1.474       .  S
C14         O263   1.267       .  A
C14          C82   1.486       .  S
C15         O262   1.264       .  A
C15         C123   1.484       .  S
C16          C73   1.532       .  S
C16         C333   1.527       .  S
C16          C85   1.548       .  S
C16         C220   1.538       .  S
C17         C105   1.533       .  S
C17         C590   1.539   1_455  S
C17          C54   1.539       .  S
C17         C192   1.550       .  S
O18          V26   1.899       .  S
O18          C28   1.263       .  A
O19          V26   1.898       .  S
O19          C29   1.265       .  A
O20          V26   1.907       .  S
O20          C30   1.267       .  A
O21          V26   1.904       .  S
O21          C31   1.265       .  A
O22          V27   1.885       .  S
O22         C543   1.261       .  A
O23          V27   1.887       .  S
O23         C542   1.261       .  A
O24          V27   1.906       .  S
O24         C541   1.267       .  A
O25          V27   1.901       .  S
O25         C540   1.267       .  A
V26         V539   2.086   1_455  T
V27         V538   2.087       .  T
C28         O537   1.264   1_455  A
C28          C44   1.472       .  S
C29         O536   1.264   1_455  A
C29          C57   1.473       .  S
C30         O535   1.266   1_455  A
C30          C67   1.488       .  S
C31         O534   1.265   1_455  A
C31          C34   1.475       .  S
C32         C102   1.539       .  S
C32         C586   1.541   1_455  S
C32          C37   1.554       .  S
C32         C175   1.538       .  S
C33          C34   1.394       .  A
C33          C38   1.392       .  A
C33          H39   1.084       .  S
C34         C547   1.405       .  A
C35          C36   1.392       .  A
C35         C546   1.402       .  A
C35          H40   1.083       .  S
C36         C549   1.411       .  A
C36          H41   1.082       .  S
C37          C38   1.419       .  A
C37         C548   1.415       .  A
C38          H42   1.081       .  S
C43          C48   1.392       .  A
C43         C556   1.400       .  A
C43          H49   1.083       .  S
C44          C45   1.406       .  A
C44         C555   1.398   1_455  A
C45          C46   1.401       .  A
C45          H50   1.083       .  S
C46          C47   1.411       .  A
C46          H51   1.081       .  S
C47         C160   1.537       .  S
C47         C560   1.411   1_455  A
C48         C559   1.413       .  A
C48          H52   1.082       .  S
C53          C54   1.411       .  A
C53          C58   1.396       .  A
C53          H59   1.083       .  S
C54         C567   1.412   1_455  A
C55          C56   1.397       .  A
C55         C566   1.414       .  A
C55          H60   1.082       .  S
C56         C569   1.402       .  A
C56          H61   1.083       .  S
C57          C58   1.402       .  A
C57         C568   1.401   1_455  A
C58          H62   1.083       .  S
C63          C64   1.414       .  A
C63          C68   1.397       .  A
C63         H581   1.083       .  S
C64         C145   1.550       .  S
C64          C65   1.414   1_455  A
C65          C66   1.407       .  A
C65          H70   1.081       .  S
C66          C67   1.407   1_655  A
C66          H71   1.083       .  S
C67          C68   1.402       .  A
C68         H584   1.083       .  S
H69         C575   1.083       .  S
H72         C580   1.083       .  S
C73          C74   1.345       .  D
C73          H75   1.086       .  S
C74         C544   1.537       .  S
C74         H204   1.087       .  S
H76         C202   1.088       .  S
C77         C272   1.541   1_545  S
C77          C78   1.354       .  D
C77          H79   1.087       .  S
C78         C529   1.536       .  S
C78         H208   1.083       .  S
H80         C206   1.084       .  S
C81          C82   1.402       .  A
C81          C86   1.399       .  A
C81          H87   1.083       .  S
C82          C83   1.406       .  A
C83          C84   1.402       .  A
C83          H88   1.083       .  S
C84          C85   1.410       .  A
C84          H89   1.083       .  S
C85          C86   1.416       .  A
C86          H90   1.079       .  S
C91          C92   1.409       .  A
C91          C96   1.399       .  A
C91          H97   1.078       .  S
C92         C144   1.541   1_554  S
C92         C349   1.412       .  A
C93         C348   1.411   1_545  A
C93         C350   1.397       .  A
C93          H98   1.083       .  S
C94          C95   1.400       .  A
C94         C349   1.391       .  A
C94         H355   1.084       .  S
C95          C96   1.405       .  A
C96         H100   1.083       .  S
H99         C350   1.083       .  S
C101        C257   1.535       .  S
C101        C102   1.348       .  D
C101        H103   1.088       .  S
C102        H232   1.079       .  S
H104        C230   1.082       .  S
C105        C234   1.349       .  D
C105        H235   1.086       .  S
C106        C129   1.537       .  S
C106        C233   1.353   1_556  D
C106        H236   1.085       .  S
H107        C233   1.081       .  S
H108        C234   1.082       .  S
C109        C114   1.394       .  A
C109        C366   1.399       .  A
C109        H115   1.083       .  S
C110        C111   1.401       .  A
C110        C365   1.399       .  A
C111        C112   1.394       .  A
C111        H116   1.083       .  S
C112        C113   1.410       .  A
C112        H117   1.081       .  S
C113        C257   1.536       .  S
C113        C370   1.415       .  A
C114        C369   1.416       .  A
C114        H118   1.080       .  S
C119        C376   1.419       .  A
C119        C380   1.391       .  A
C119        H125   1.080       .  S
C120        C385   1.540       .  S
C120        C121   1.409       .  A
C120        C375   1.413       .  A
C121        C122   1.408       .  A
C121        H126   1.079       .  S
C122        C123   1.409       .  A
C122        H127   1.083       .  S
C123        C124   1.399       .  A
C124        C375   1.390       .  A
C124        H384   1.083       .  S
H128        C380   1.084       .  S
C129        C485   1.532   1_546  S
C129        C497   1.555   1_545  S
C129        C376   1.551   1_556  S
O130        V138   1.890       .  S
O130        C140   1.261       .  A
O131        V138   1.892       .  S
O131        C141   1.264       .  A
O132        V138   1.901       .  S
O132        C142   1.266       .  A
O133        V138   1.907       .  S
O133        C143   1.265       .  A
O134        V139   1.893       .  S
O134        C399   1.262       .  A
O135        V139   1.895       .  S
O135        C398   1.264   1_545  A
O136        V139   1.905       .  S
O136        C397   1.266   1_545  A
O137        V139   1.909       .  S
O137        C396   1.267   1_545  A
V138        V395   2.087       .  T
V139        V394   2.087   1_545  T
C140        O393   1.267       .  A
C140        C238   1.476       .  S
C141        O392   1.264       .  A
C141        C223   1.473       .  S
C142        O391   1.263       .  A
C142        C210   1.477       .  S
C143        O390   1.264       .  A
C143        C251   1.474       .  S
C144        C201   1.537       .  S
C144        C461   1.549       .  S
C144        C213   1.539       .  S
C145        C718   1.541   1_455  S
C145        C233   1.542       .  S
C145        C182   1.536   1_554  S
O146        V154   1.873       .  S
O146        C156   1.259       .  A
O147        V154   1.876       .  S
O147        C157   1.259       .  A
O148        V154   1.909       .  S
O148        C158   1.268       .  A
O149        V154   1.907       .  S
O149        C159   1.266       .  A
O150        V155   1.900       .  S
O150        C671   1.263       .  A
O151        V155   1.897       .  S
O151        C670   1.262       .  A
O152        V155   1.911       .  S
O152        C669   1.268       .  A
O153        V155   1.913       .  S
O153        C668   1.268       .  A
V154        V667   2.087   1_455  T
V155        V666   2.087       .  T
C156        O665   1.266   1_455  A
C156        C172   1.465       .  S
C157        O664   1.268   1_455  A
C157        C185   1.473       .  S
C158        O663   1.267   1_455  A
C158        C195   1.492       .  S
C159        O662   1.264   1_455  A
C159        C162   1.474       .  S
C160        C714   1.533   1_455  S
C160        C230   1.533   1_554  S
C160        C165   1.566   1_554  S
C161        C162   1.391       .  A
C161        C166   1.392       .  A
C161        H167   1.084       .  S
C162        C675   1.404       .  A
C163        C674   1.400       .  A
C163        C164   1.406       .  A
C163        H168   1.083       .  S
C164        C677   1.419       .  A
C164        H169   1.083       .  S
C165        C676   1.417       .  A
C165        C166   1.423       .  A
C166        H170   1.078   1_556  S
C171        C684   1.406       .  A
C171        C176   1.403       .  A
C171        H177   1.083       .  S
C172        C683   1.397   1_455  A
C172        C173   1.401       .  A
C173        C174   1.389       .  A
C173        H178   1.084       .  S
C174        C175   1.410       .  A
C174        H179   1.072       .  S
C175        C688   1.416   1_455  A
C176        C687   1.412       .  A
C176        H180   1.083       .  S
C181        C182   1.404       .  A
C181        C186   1.391       .  A
C181        H187   1.079       .  S
C182        C695   1.414   1_455  A
C183        C694   1.415       .  A
C183        C184   1.401       .  A
C183        H188   1.079       .  S
C184        C697   1.403       .  A
C184        H189   1.083       .  S
C185        C696   1.400   1_455  A
C185        C186   1.405       .  A
C186        H190   1.083       .  S
C191        C192   1.413   1_655  A
C191        C196   1.406       .  A
C191        H709   1.083       .  S
C192        C193   1.416       .  A
C193        C194   1.400       .  A
C193        H198   1.081       .  S
C194        C195   1.403       .  A
C194        H199   1.083       .  S
C195        C196   1.407   1_455  A
C196        H712   1.083       .  S
H197        C703   1.079       .  S
H200        C708   1.084       .  S
C201        C202   1.340   1_556  D
C201        H203   1.083       .  S
C202        C672   1.533   1_554  S
C205        C400   1.545   1_545  S
C205        C206   1.355   1_556  D
C205        H207   1.088       .  S
C206        C657   1.534       .  S
C209        C210   1.406       .  A
C209        C214   1.404       .  A
C209        H215   1.083       .  S
C210        C211   1.399       .  A
C211        C212   1.392       .  A
C211        H216   1.083       .  S
C212        C213   1.413       .  A
C212        H217   1.084       .  S
C213        C214   1.411       .  A
C214        H218   1.081       .  S
C219        C220   1.413       .  A
C219        C224   1.391       .  A
C219        H225   1.081       .  S
C220        C477   1.411       .  A
C221        C476   1.412   1_545  A
C221        C478   1.400       .  A
C221        H226   1.083       .  S
C222        C477   1.399       .  A
C222        C223   1.403       .  A
C222        H483   1.083       .  S
C223        C224   1.400       .  A
C224        H228   1.083       .  S
H227        C478   1.083       .  S
C229        C385   1.531       .  S
C229        C230   1.348   1_554  D
C229        H231   1.088       .  S
C237        C494   1.402   1_545  A
C237        C242   1.400       .  A
C237        H243   1.083       .  S
C238        C493   1.398       .  A
C238        C239   1.406       .  A
C239        C240   1.399       .  A
C239        H244   1.083       .  S
C240        C241   1.410       .  A
C240        H245   1.081       .  S
C241        C385   1.542   1_556  S
C241        C498   1.415       .  A
C242        C497   1.414   1_545  A
C242        H246   1.078       .  S
C247        C504   1.415   1_565  A
C247        C508   1.402       .  A
C247        H253   1.078       .  S
C248        C257   1.554       .  S
C248        C503   1.414       .  A
C248        C249   1.413       .  A
C249        C250   1.395       .  A
C249        H254   1.082       .  S
C250        C251   1.399       .  A
C250        H255   1.083       .  S
C251        C252   1.400       .  A
C252        C503   1.403       .  A
C252        H512   1.083       .  S
H256        C508   1.083       .  S
C257        C490   1.528       .  S
O258        V266   1.889       .  S
O258        C268   1.262   1_565  A
O259        V266   1.893       .  S
O259        C269   1.263   1_565  A
O260        V266   1.891       .  S
O260        C270   1.263   1_565  A
O261        V266   1.894       .  S
O261        C271   1.263   1_565  A
O262        V267   1.906       .  S
O263        V267   1.907       .  S
O264        V267   1.898       .  S
O265        V267   1.895       .  S
C268        C366   1.472       .  S
C269        C351   1.471   1_545  S
C270        C338   1.467   1_545  S
C271        C379   1.451       .  S
C272        C329   1.540       .  S
C272        C341   1.537       .  S
C272        C476   1.548       .  S
C273        C846   1.539   1_455  S
C273        C361   1.528       .  S
C273        C310   1.545       .  S
C273        C448   1.539       .  S
O274        V282   1.907       .  S
O274        C284   1.265       .  A
O275        V282   1.904       .  S
O275        C285   1.266       .  A
O276        V282   1.905       .  S
O276        C286   1.267       .  A
O277        V282   1.906       .  S
O277        C287   1.265       .  A
O278        V283   1.902       .  S
O278        C799   1.263       .  A
O279        V283   1.901       .  S
O279        C798   1.265       .  A
O280        V283   1.912       .  S
O280        C797   1.268       .  A
O281        V283   1.911       .  S
O281        C796   1.267       .  A
V282        V795   2.087   1_455  T
V283        V794   2.087       .  T
C284        O793   1.265   1_455  A
C284        C300   1.477       .  S
C285        O792   1.265   1_455  A
C285        C313   1.480       .  S
C286        O791   1.265   1_455  A
C286        C323   1.485       .  S
C287        O790   1.263   1_455  A
C287        C290   1.470       .  S
C288        C842   1.543   1_455  S
C288        C358   1.539       .  S
C288        C293   1.557       .  S
C288        C431   1.548       .  S
C289        C290   1.395       .  A
C289        C294   1.394       .  A
C289        H295   1.084       .  S
C290        C803   1.401       .  A
C291        C802   1.399       .  A
C291        C292   1.404       .  A
C291        H296   1.083       .  S
C292        C805   1.418       .  A
C292        H297   1.083       .  S
C293        C804   1.417       .  A
C293        C294   1.419       .  A
C294        H298   1.080       .  S
C299        C812   1.402       .  A
C299        C304   1.400       .  A
C299        H305   1.083       .  S
C300        C811   1.399       .  A
C300        C301   1.405       .  A
C301        C302   1.404       .  A
C301        H306   1.083       .  S
C302        C303   1.413       .  A
C302        H307   1.083       .  S
C303        C416   1.550   1_554  S
C303        C816   1.413   1_455  A
C304        C815   1.414       .  A
C304        H308   1.082       .  S
C309        C310   1.412       .  A
C309        C314   1.397       .  A
C309        H315   1.083       .  S
C310        C823   1.411   1_455  A
C311        C822   1.415       .  A
C311        C312   1.400       .  A
C311        H316   1.082       .  S
C312        C825   1.402       .  A
C312        H317   1.083       .  S
C313        C824   1.404   1_455  A
C313        C314   1.402       .  A
C314        H318   1.083       .  S
C319        C320   1.413   1_655  A
C319        C324   1.404       .  A
C319        H837   1.081       .  S
C320        C401   1.544       .  S
C320        C321   1.413       .  A
C321        C322   1.396       .  A
C321        H326   1.079       .  S
C322        C323   1.401       .  A
C322        H327   1.083       .  S
C323        C324   1.407   1_455  A
C324        H840   1.083       .  S
H325        C831   1.078       .  S
H328        C836   1.083       .  S
C329        C330   1.345       .  D
C329        H331   1.082       .  S
C330        C800   1.538       .  S
C330        H460   1.088       .  S
H332        C458   1.089       .  S
C333        C334   1.354       .  D
C333        H335   1.082       .  S
C334        C785   1.538       .  S
C334        H464   1.084       .  S
H336        C462   1.083       .  S
C337        C338   1.400   1_545  A
C337        C342   1.395       .  A
C337        H343   1.083       .  S
C338        C339   1.400       .  A
C339        C340   1.392       .  A
C339        H344   1.083       .  S
C340        C341   1.410       .  A
C340        H345   1.083       .  S
C341        C342   1.414   1_565  A
C342        H346   1.076       .  S
C347        C348   1.414       .  A
C347        C352   1.394       .  A
C347        H353   1.078       .  S
C348        C400   1.542   1_554  S
C349        H354   1.083       .  S
C350        C351   1.401   1_545  A
C351        C352   1.400       .  A
C352        H356   1.084       .  S
C357        C358   1.350       .  D
C357        H359   1.086       .  S
C358        H488   1.080       .  S
H360        C486   1.080       .  S
C361        C490   1.348       .  D
C361        H491   1.087       .  S
C362        C385   1.543   1_556  S
C362        C489   1.346   1_556  D
C362        H492   1.084       .  S
H363        C489   1.088       .  S
H364        C490   1.081       .  S
C365        C370   1.393       .  A
C365        H371   1.083       .  S
C366        C367   1.402   1_545  A
C367        C368   1.393       .  A
C367        H372   1.083       .  S
C368        C369   1.409   1_565  A
C368        H373   1.082       .  S
C370        H374   1.080       .  S
C375        H381   1.082       .  S
C376        C377   1.417       .  A
C377        C378   1.393       .  A
C377        H382   1.080   1_554  S
C378        C379   1.394       .  A
C378        H383   1.084       .  S
C379        C380   1.392       .  A
O386        V394   1.902       .  S
O386        C396   1.265       .  A
O387        V394   1.909       .  S
O387        C397   1.267       .  A
O388        V394   1.907       .  S
O388        C398   1.265       .  A
O389        V394   1.910       .  S
O389        C399   1.266   1_565  A
O390        V395   1.898       .  S
O391        V395   1.901       .  S
O392        V395   1.900       .  S
O393        V395   1.903       .  S
C396        C494   1.484       .  S
C397        C479   1.486       .  S
C398        C466   1.476       .  S
C399        C507   1.472       .  S
C400        C457   1.534       .  S
C400        C469   1.544       .  S
C401        C974   1.538   1_455  S
C401        C489   1.542       .  S
C401        C438   1.552   1_554  S
O402        V410   1.887       .  S
O402        C412   1.261       .  A
O403        V410   1.893       .  S
O403        C413   1.262       .  A
O404        V410   1.911       .  S
O404        C414   1.268       .  A
O405        V410   1.903       .  S
O405        C415   1.265       .  A
O406        V411   1.898       .  S
O406        C927   1.263       .  A
O407        V411   1.897       .  S
O407        C926   1.262       .  A
O408        V411   1.902       .  S
O408        C925   1.266       .  A
O409        V411   1.897       .  S
O409        C924   1.265       .  A
V410        V923   2.087   1_455  T
V411        V922   2.087       .  T
C412        O921   1.268   1_455  A
C412        C428   1.476       .  S
C413        O920   1.269   1_455  A
C413        C441   1.485       .  S
C414        O919   1.262   1_455  A
C414        C451   1.478       .  S
C415        O918   1.260   1_455  A
C415        C418   1.461       .  S
C416        C970   1.536   1_456  S
C416        C486   1.533       .  S
C416        C421   1.552       .  S
C417        C418   1.395   1_655  A
C417        C422   1.394       .  A
C417        H423   1.084       .  S
C418        C931   1.397       .  A
C419        C930   1.400       .  A
C419        C420   1.399       .  A
C419        H424   1.083       .  S
C420        C933   1.414       .  A
C420        H425   1.078       .  S
C421        C932   1.416       .  A
C421        C422   1.416   1_455  A
C422        H426   1.081   1_556  S
C427        C940   1.402       .  A
C427        C432   1.393       .  A
C427        H433   1.083       .  S
C428        C939   1.399   1_455  A
C428        C429   1.403       .  A
C429        C430   1.396       .  A
C429        H434   1.084       .  S
C430        C431   1.413       .  A
C430        H435   1.074       .  S
C431        C944   1.416   1_455  A
C432        C943   1.412       .  A
C432        H436   1.081       .  S
C437        C438   1.410       .  A
C437        C442   1.399       .  A
C437        H443   1.081       .  S
C438        C951   1.417   1_455  A
C439        C950   1.412       .  A
C439        C440   1.397       .  A
C439        H444   1.081       .  S
C440        C953   1.403       .  A
C440        H445   1.083       .  S
C441        C952   1.401   1_455  A
C441        C442   1.406       .  A
C442        H446   1.083       .  S
C447        C448   1.407   1_655  A
C447        C452   1.394       .  A
C447        H965   1.083       .  S
C448        C449   1.418       .  A
C449        C450   1.401       .  A
C449        H454   1.081       .  S
C450        C451   1.402       .  A
C450        H455   1.083       .  S
C451        C452   1.404   1_455  A
C452        H968   1.083       .  S
H453        C959   1.079       .  S
H456        C964   1.084       .  S
C457        C458   1.350   1_556  D
C457        H459   1.081       .  S
C458        C928   1.535       .  S
C461        C462   1.364   1_556  D
C461        H463   1.087       .  S
C462        C913   1.534       .  S
C465        C466   1.400   1_545  A
C465        C470   1.394       .  A
C465        H471   1.084       .  S
C466        C467   1.403       .  A
C467        C468   1.402       .  A
C467        H472   1.083       .  S
C468        C469   1.413       .  A
C468        H473   1.083       .  S
C469        C470   1.413   1_565  A
C470        H474   1.077       .  S
C475        C476   1.413       .  A
C475        C480   1.402       .  A
C475        H481   1.077       .  S
C477        H482   1.083       .  S
C478        C479   1.404   1_545  A
C479        C480   1.404       .  A
C480        H484   1.083       .  S
C485        C486   1.341   1_554  D
C485        H487   1.081       .  S
C493        C498   1.392       .  A
C493        H499   1.083       .  S
C494        C495   1.404       .  A
C495        C496   1.401       .  A
C495        H500   1.083       .  S
C496        C497   1.413       .  A
C496        H501   1.083       .  S
C498        H502   1.083       .  S
C503        H509   1.074       .  S
C504        C505   1.414       .  A
C505        C506   1.395       .  A
C505        H510   1.081       .  S
C506        C507   1.399       .  A
C506        H511   1.083       .  S
C507        C508   1.400   1_545  A
C513        C869   1.536       .  S
C513        C746   1.539   1_565  S
C513        C881   1.552       .  S
C513       C1016   1.534       .  S
O514        V522   1.904       .  S
O514        C524   1.265       .  A
O515        V522   1.903       .  S
O515        C525   1.265       .  A
O516        V522   1.892       .  S
O516        C526   1.263       .  A
O517        V522   1.897       .  S
O517        C527   1.266       .  A
O518        V523   1.905       .  S
O518        C783   1.265   1_545  A
O519        V523   1.904       .  S
O519        C782   1.264   1_545  A
O520        V523   1.900       .  S
O520        C781   1.265   1_545  A
O521        V523   1.904       .  S
O521        C780   1.268   1_545  A
V522        V779   2.086       .  T
V523        V778   2.084   1_545  T
C524        O777   1.267       .  A
C524        C622   1.485       .  S
C525        O776   1.266       .  A
C525        C607   1.484       .  S
C526        O775   1.264       .  A
C526        C594   1.468       .  S
C527        O774   1.263       .  A
C527        C635   1.477       .  S
C528        C585   1.540       .  S
C528        C845   1.547       .  S
C528        C597   1.537       .  S
C528        C732   1.546       .  S
C529        C617   1.542       .  S
C529        C566   1.553       .  S
C529        C704   1.554       .  S
O530        V538   1.899       .  S
O530        C540   1.264       .  A
O531        V538   1.895       .  S
O531        C541   1.263       .  A
O532        V538   1.898       .  S
O532        C542   1.265       .  A
O533        V538   1.899       .  S
O533        C543   1.265       .  A
O534        V539   1.909       .  S
O535        V539   1.910       .  S
O536        V539   1.894       .  S
O537        V539   1.886       .  S
C540        C556   1.481       .  S
C541        C569   1.481       .  S
C542        C579   1.466       .  S
C543        C546   1.470       .  S
C544        C614   1.533       .  S
C544        C549   1.530       .  S
C544        C687   1.549       .  S
C545        C546   1.400       .  A
C545        C550   1.394       .  A
C545        H551   1.083       .  S
C547        C548   1.410       .  A
C547        H552   1.083       .  S
C548        H553   1.081       .  S
C549        C550   1.411       .  A
C550        H554   1.083       .  S
C555        C560   1.384       .  A
C555        H561   1.083       .  S
C556        C557   1.407       .  A
C557        C558   1.402       .  A
C557        H562   1.083       .  S
C558        C559   1.411       .  A
C558        H563   1.081       .  S
C559        C672   1.545   1_554  S
C560        H564   1.081       .  S
C565        C566   1.412       .  A
C565        C570   1.398       .  A
C565        H571   1.081       .  S
C567        C568   1.395       .  A
C567        H572   1.081       .  S
C568        H573   1.083       .  S
C569        C570   1.405       .  A
C570        H574   1.083       .  S
C575        C576   1.410       .  A
C575        C580   1.394       .  A
C576        C657   1.537       .  S
C576        C577   1.415       .  A
C577        C578   1.391       .  A
C577        H582   1.075       .  S
C578        C579   1.396       .  A
C578        H583   1.083       .  S
C579        C580   1.402       .  A
C585        C586   1.341       .  D
C585        H587   1.082       .  S
C586        H716   1.089   1_655  S
H588        C714   1.088       .  S
C589        C784   1.554   1_545  S
C589        C590   1.373       .  D
C589        H591   1.086       .  S
C590        H720   1.083       .  S
H592        C718   1.085       .  S
C593        C594   1.401       .  A
C593        C598   1.397       .  A
C593        H599   1.083       .  S
C594        C595   1.399       .  A
C595        C596   1.391       .  A
C595        H600   1.083       .  S
C596        C597   1.412       .  A
C596        H601   1.083       .  S
C597        C598   1.412       .  A
C598        H602   1.078       .  S
C603        C604   1.410       .  A
C603        C608   1.402       .  A
C603        H609   1.076       .  S
C604        C656   1.545   1_554  S
C604        C861   1.412       .  A
C605        C860   1.411       .  A
C605        C862   1.395       .  A
C605        H610   1.083       .  S
C606        C861   1.397       .  A
C606        C607   1.403       .  A
C606        H867   1.083       .  S
C607        C608   1.406       .  A
C608        H612   1.083       .  S
H611        C862   1.083       .  S
C613        C769   1.528       .  S
C613        C614   1.346       .  D
C613        H615   1.088       .  S
C614        H744   1.085       .  S
H616        C742   1.082       .  S
C617        C746   1.352       .  D
C617        H747   1.085       .  S
C618        C641   1.536       .  S
C618        C745   1.346   1_556  D
C618        H748   1.083       .  S
H619        C745   1.089       .  S
H620        C746   1.086       .  S
C621        C878   1.398   1_545  A
C621        C626   1.392       .  A
C621        H627   1.083       .  S
C622        C877   1.401       .  A
C622        C623   1.405       .  A
C623        C624   1.403       .  A
C623        H628   1.083       .  S
C624        C625   1.411       .  A
C624        H629   1.083       .  S
C625        C769   1.552       .  S
C625        C882   1.418       .  A
C626        C881   1.417   1_545  A
C626        H630   1.081       .  S
C631        C888   1.411       .  A
C631        C892   1.404       .  A
C631        H637   1.079       .  S
C632        C897   1.535   1_554  S
C632        C887   1.411       .  A
C632        C633   1.408       .  A
C633        C634   1.401       .  A
C633        H638   1.079       .  S
C634        C635   1.406       .  A
C634        H639   1.083       .  S
C635        C636   1.401       .  A
C636        C887   1.391       .  A
C636        H896   1.083       .  S
H640        C892   1.083       .  S
C641        C997   1.532   1_545  S
C641       C1009   1.528       .  S
C641        C888   1.552   1_556  S
O642        V650   1.893       .  S
O642        C652   1.261       .  A
O643        V650   1.898       .  S
O643        C653   1.264       .  A
O644        V650   1.904       .  S
O644        C654   1.267       .  A
O645        V650   1.909       .  S
O645        C655   1.268       .  A
O646        V651   1.903       .  S
O646        C911   1.265       .  A
O647        V651   1.904       .  S
O647        C910   1.265       .  A
O648        V651   1.898       .  S
O648        C909   1.266       .  A
O649        V651   1.900       .  S
O649        C908   1.265       .  A
V650        V907   2.086       .  T
V651        V906   2.085   1_545  T
C652        O905   1.268       .  A
C652        C750   1.477       .  S
C653        O904   1.266       .  A
C653        C735   1.478       .  S
C654        O903   1.261       .  A
C654        C722   1.474       .  S
C655        O902   1.262       .  A
C655        C763   1.478       .  S
C656        C713   1.539       .  S
C656        C973   1.548       .  S
C656        C725   1.538       .  S
C657        C745   1.537       .  S
C657        C694   1.555   1_554  S
O658        V666   1.905       .  S
O658        C668   1.266       .  A
O659        V666   1.906       .  S
O659        C669   1.266       .  A
O660        V666   1.905       .  S
O660        C670   1.265       .  A
O661        V666   1.904       .  S
O661        C671   1.265       .  A
O662        V667   1.907       .  S
O663        V667   1.911       .  S
O664        V667   1.913       .  S
O665        V667   1.905       .  S
C668        C684   1.492       .  S
C669        C697   1.490       .  S
C670        C707   1.466       .  S
C671        C674   1.468       .  S
C672        C742   1.536       .  S
C672        C677   1.561       .  S
C673        C674   1.393       .  A
C673        C678   1.392       .  A
C673        H679   1.084       .  S
C675        C676   1.410       .  A
C675        H680   1.083       .  S
C676        H681   1.083       .  S
C677        C678   1.419       .  A
C678        H682   1.078       .  S
C683        C688   1.394       .  A
C683        H689   1.083       .  S
C684        C685   1.406       .  A
C685        C686   1.401       .  A
C685        H690   1.083       .  S
C686        C687   1.412       .  A
C686        H691   1.081       .  S
C688        H692   1.083       .  S
C693        C694   1.412       .  A
C693        C698   1.404       .  A
C693        H699   1.083       .  S
C695        C696   1.398       .  A
C695        H700   1.083       .  S
C696        H701   1.083       .  S
C697        C698   1.406       .  A
C698        H702   1.083       .  S
C703        C704   1.421       .  A
C703        C708   1.392       .  A
C704        C705   1.416       .  A
C705        C706   1.404       .  A
C705        H710   1.082       .  S
C706        C707   1.401       .  A
C706        H711   1.083       .  S
C707        C708   1.392       .  A
C713        C714   1.335   1_556  D
C713        H715   1.083       .  S
C717        C912   1.539       .  S
C717        C718   1.363   1_556  D
C717        H719   1.085       .  S
C721        C722   1.405       .  A
C721        C726   1.400       .  A
C721        H727   1.083       .  S
C722        C723   1.399       .  A
C723        C724   1.392       .  A
C723        H728   1.083       .  S
C724        C725   1.414       .  A
C724        H729   1.083       .  S
C725        C726   1.410       .  A
C726        H730   1.080       .  S
C731        C732   1.412       .  A
C731        C736   1.400       .  A
C731        H737   1.079       .  S
C732        C989   1.413       .  A
C733        C988   1.413   1_545  A
C733        C990   1.389       .  A
C733        H738   1.083       .  S
C734        C989   1.396       .  A
C734        C735   1.401       .  A
C734        H995   1.083       .  S
C735        C736   1.404       .  A
C736        H740   1.083       .  S
H739        C990   1.083       .  S
C741        C897   1.533   1_554  S
C741        C742   1.346   1_554  D
C741        H743   1.088       .  S
C749       C1006   1.399       .  A
C749        C754   1.393       .  A
C749        H755   1.083       .  S
C750       C1005   1.397       .  A
C750        C751   1.408       .  A
C751        C752   1.402       .  A
C751        H756   1.083       .  S
C752        C753   1.410       .  A
C752        H757   1.081       .  S
C753        C897   1.540       .  S
C753       C1010   1.415       .  A
C754       C1009   1.411       .  A
C754        H758   1.083       .  S
C759       C1016   1.411       .  A
C759       C1020   1.387       .  A
C759        H765   1.082       .  S
C760        C769   1.543       .  S
C760       C1015   1.416       .  A
C760        C761   1.409       .  A
C761        C762   1.400       .  A
C761        H766   1.083       .  S
C762        C763   1.406       .  A
C762        H767   1.083       .  S
C763        C764   1.399       .  A
C764       C1015   1.396       .  A
C764       H1024   1.083       .  S
H768       C1020   1.083       .  S
C769       C1002   1.527       .  S
O770        V778   1.906       .  S
O770        C780   1.264       .  A
O771        V778   1.898       .  S
O771        C781   1.264       .  A
O772        V778   1.911       .  S
O772        C782   1.268       .  A
O773        V778   1.916       .  S
O773        C783   1.269       .  A
O774        V779   1.898       .  S
O775        V779   1.898       .  S
O776        V779   1.904       .  S
O777        V779   1.908       .  S
C780        C878   1.488       .  S
C781        C863   1.478   1_565  S
C782        C850   1.486       .  S
C783        C891   1.493       .  S
C784        C841   1.540       .  S
C784        C853   1.547       .  S
C784        C988   1.531       .  S
C785        C873   1.544       .  S
C785        C822   1.549       .  S
C785        C960   1.549       .  S
O786        V794   1.882       .  S
O786        C796   1.261       .  A
O787        V794   1.883       .  S
O787        C797   1.261       .  A
O788        V794   1.906       .  S
O788        C798   1.267       .  A
O789        V794   1.903       .  S
O789        C799   1.265       .  A
O790        V795   1.902       .  S
O791        V795   1.904       .  S
O792        V795   1.900       .  S
O793        V795   1.894       .  S
C796        C812   1.476       .  S
C797        C825   1.478       .  S
C798        C835   1.485       .  S
C799        C802   1.468       .  S
C800        C870   1.543       .  S
C800        C805   1.559       .  S
C800        C943   1.550       .  S
C801        C802   1.394       .  A
C801        C806   1.394       .  A
C801        H807   1.084       .  S
C803        C804   1.405       .  A
C803        H808   1.083       .  S
C804        H809   1.080       .  S
C805        C806   1.419       .  A
C806        H810   1.079       .  S
C811        C816   1.391   1_455  A
C811        H817   1.084   1_455  S
C812        C813   1.402       .  A
C813        C814   1.390       .  A
C813        H818   1.083       .  S
C814        C815   1.412       .  A
C814        H819   1.080       .  S
C815        C928   1.541       .  S
C816        H820   1.076       .  S
C821        C822   1.409       .  A
C821        C826   1.392       .  A
C821        H827   1.082       .  S
C823        C824   1.399       .  A
C823        H828   1.079       .  S
C824        H829   1.083       .  S
C825        C826   1.405       .  A
C826        H830   1.083       .  S
C831        C832   1.414       .  A
C831        C836   1.398       .  A
C832        C913   1.545       .  S
C832        C833   1.412       .  A
C833        C834   1.401       .  A
C833        H838   1.082       .  S
C834        C835   1.406       .  A
C834        H839   1.083       .  S
C835        C836   1.402       .  A
C841        C842   1.345       .  D
C841        H843   1.081       .  S
C842        H972   1.089   1_655  S
H844        C970   1.087   1_455  S
C845        C846   1.359       .  D
C845        H847   1.087       .  S
C846        H976   1.083       .  S
H848        C974   1.083       .  S
C849        C850   1.409   1_545  A
C849        C854   1.407       .  A
C849        H855   1.083       .  S
C850        C851   1.400       .  A
C851        C852   1.396       .  A
C851        H856   1.083       .  S
C852        C853   1.415       .  A
C852        H857   1.083       .  S
C853        C854   1.411   1_565  A
C854        H858   1.080       .  S
C859        C860   1.410   1_565  A
C859        C864   1.397       .  A
C859        H865   1.079       .  S
C860        C912   1.539   1_554  S
C861        H866   1.083       .  S
C862        C863   1.402       .  A
C863        C864   1.404   1_545  A
C864        H868   1.083       .  S
C869        C870   1.345       .  D
C869        H871   1.088       .  S
C870       H1000   1.083       .  S
H872        C998   1.081       .  S
C873       C1002   1.351       .  D
C873       H1003   1.084       .  S
C874        C897   1.541       .  S
C874       C1001   1.345   1_556  D
C874       H1004   1.086       .  S
H875       C1001   1.088       .  S
H876       C1002   1.083       .  S
C877        C882   1.399       .  A
C877        H883   1.083       .  S
C878        C879   1.409       .  A
C879        C880   1.410       .  A
C879        H884   1.083       .  S
C880        C881   1.413       .  A
C880        H885   1.081       .  S
C882        H886   1.080       .  S
C887        H893   1.083       .  S
C888        C889   1.413   1_545  A
C889        C890   1.403       .  A
C889        H894   1.083       .  S
C890        C891   1.405       .  A
C890        H895   1.083       .  S
C891        C892   1.407   1_565  A
O898        V906   1.876       .  S
O898        C908   1.260   1_565  A
O899        V906   1.878       .  S
O899        C909   1.259   1_565  A
O900        V906   1.889       .  S
O900        C910   1.264   1_565  A
O901        V906   1.890       .  S
O901        C911   1.264   1_565  A
O902        V907   1.893       .  S
O903        V907   1.893       .  S
O904        V907   1.904       .  S
O905        V907   1.902       .  S
C908       C1006   1.463       .  S
C909        C991   1.464       .  S
C910        C978   1.474       .  S
C911       C1019   1.475       .  S
C912        C969   1.537   1_545  S
C912        C981   1.539       .  S
C913       C1001   1.535       .  S
C913        C950   1.547   1_554  S
O914        V922   1.917       .  S
O914        C924   1.268       .  A
O915        V922   1.911       .  S
O915        C925   1.267       .  A
O916        V922   1.902       .  S
O916        C926   1.264       .  A
O917        V922   1.903       .  S
O917        C927   1.264       .  A
O918        V923   1.891       .  S
O919        V923   1.888       .  S
O920        V923   1.914       .  S
O921        V923   1.912       .  S
C924        C940   1.490       .  S
C925        C953   1.487       .  S
C926        C963   1.463       .  S
C927        C930   1.470       .  S
C928        C998   1.530       .  S
C928        C933   1.555   1_554  S
C929        C930   1.397       .  A
C929        C934   1.397       .  A
C929        H935   1.083       .  S
C931        C932   1.398       .  A
C931        H936   1.083       .  S
C932        H937   1.082       .  S
C933        C934   1.416       .  A
C934        H938   1.080       .  S
C939        C944   1.398       .  A
C939        H945   1.083       .  S
C940        C941   1.409       .  A
C941        C942   1.410       .  A
C941        H946   1.083       .  S
C942        C943   1.413       .  A
C942        H947   1.081       .  S
C944        H948   1.083       .  S
C949        C950   1.413       .  A
C949        C954   1.404       .  A
C949        H955   1.082       .  S
C951        C952   1.400       .  A
C951        H956   1.082       .  S
C952        H957   1.083       .  S
C953        C954   1.405       .  A
C954        H958   1.083       .  S
C959        C960   1.418       .  A
C959        C964   1.392       .  A
C960        C961   1.416       .  A
C961        C962   1.403       .  A
C961        H966   1.083       .  S
C962        C963   1.400       .  A
C962        H967   1.083       .  S
C963        C964   1.394       .  A
C969        C970   1.341   1_556  D
C969        H971   1.084       .  S
C973        C974   1.364   1_556  D
C973        H975   1.087       .  S
C977        C978   1.405       .  A
C977        C982   1.403       .  A
C977        H983   1.083       .  S
C978        C979   1.399   1_545  A
C979        C980   1.387       .  A
C979        H984   1.083       .  S
C980        C981   1.411   1_565  A
C980        H985   1.083       .  S
C981        C982   1.414       .  A
C982        H986   1.081       .  S
C987        C988   1.407       .  A
C987        C992   1.392       .  A
C987        H993   1.079       .  S
C989        H994   1.083       .  S
C990        C991   1.398       .  A
C991        C992   1.404   1_545  A
C992        H996   1.083       .  S
C997        C998   1.345   1_556  D
C997        H999   1.087       .  S
C1005      C1010   1.389       .  A
C1005      H1011   1.083       .  S
C1006      C1007   1.401   1_545  A
C1007      C1008   1.388       .  A
C1007      H1012   1.084       .  S
C1008      C1009   1.411   1_565  A
C1008      H1013   1.081       .  S
C1010      H1014   1.083       .  S
C1015      H1021   1.078       .  S
C1016      C1017   1.411   1_565  A
C1017      C1018   1.402       .  A
C1017      H1022   1.081       .  S
C1018      C1019   1.406       .  A
C1018      H1023   1.083       .  S
C1019      C1020   1.400   1_545  A
