geometry optimzed in LAMMPS
_audit_creation_date              2020-11-30 
_audit_creation_method            'lammps2cif' 
_symmetry_space_group_name_H-M    'P1' 
_symmetry_Int_Tables_number       1 
_symmetry_cell_setting            triclinic 
loop_ 
_symmetry_equiv_pos_as_xyz 
  x,y,z 
_cell_length_a                    42.72154474 
_cell_length_b                    42.73917815194116 
_cell_length_c                    42.56323142558339 
_cell_angle_alpha                 89.80627982981865 
_cell_angle_beta                  89.7766348904295 
_cell_angle_gamma                 89.92593188268054 
loop_ 
_atom_site_label 
_atom_site_type_symbol 
_atom_site_fract_x 
_atom_site_fract_y 
_atom_site_fract_z 
_atom_site_charge 
C1          C  0.56300973  0.30025413  0.05742799     0.03400
C2          C  0.55345735  0.28689732  0.02886137    -0.12700
C3          C  0.52319530  0.27453322  0.02576371     0.00900
C4          C  0.50195566  0.27731459  0.05083367    -0.11200
C5          C  0.51088797  0.29152007  0.07898240     0.03400
C6          C  0.54142669  0.30291730  0.08221409    -0.10700
H7          H  0.56966771  0.28594054  0.00927104     0.09000
H8          H  0.47843722  0.26810904  0.04856928     0.06600
H9          H  0.54841180  0.31370256  0.10410345     0.06400
C10         C  0.29572616  0.11915263  0.50993258     0.03400
C11         C  0.28050510  0.09138472  0.50135371    -0.12700
C12         C  0.26996076  0.08718328  0.47049732     0.00900
C13         C  0.27509814  0.11075921  0.44806291    -0.11200
C14         C  0.29030126  0.13858212  0.45635805     0.03400
C15         C  0.30113510  0.14238570  0.48719537    -0.10700
H16         H  0.27650331  0.07326017  0.51877516     0.09000
H17         H  0.26665024  0.10771727  0.42428326     0.06600
H18         H  0.31342309  0.16359683  0.49355123     0.06400
C19         C  0.11476505  0.56708384  0.24981826     0.03400
C20         C  0.13832971  0.54469436  0.25461210    -0.12700
C21         C  0.13485346  0.51417817  0.24305532     0.00900
C22         C  0.10788890  0.50644271  0.22612603    -0.11200
C23         C  0.08385924  0.52839705  0.22181686     0.03400
C24         C  0.08746410  0.55884145  0.23350177    -0.10700
H25         H  0.15928083  0.55100785  0.26738184     0.09000
H26         H  0.10556929  0.48329105  0.21610672     0.06600
H27         H  0.06908858  0.57599503  0.23003886     0.06400
C28         C  0.34747333  0.32322033  0.24659463     0.80500
N29         N  0.32589627  0.34628947  0.24292080    -0.77800
C30         C  0.30171026  0.34901857  0.26352878     0.83000
N31         N  0.29920172  0.32855856  0.28790480    -0.77700
C32         C  0.32067903  0.30540150  0.29162599     0.83100
N33         N  0.34454037  0.30256825  0.27069694    -0.79400
O34         O  0.63798489  0.62269550  0.53524351    -0.85000
O35         O  0.60175982  0.67554312  0.54493906    -0.82100
C36         C  0.57401892  0.66635327  0.54977640     0.98400
O37         O  0.56721490  0.65145607  0.57450874    -0.82100
O38         O  0.57618917  0.61595941  0.62799459    -0.84800
C39         C  0.58094898  0.58868583  0.61777775     1.03000
O40         O  0.60644698  0.58173556  0.60436937    -0.77500
O41         O  0.66068691  0.59169794  0.56957476    -0.77700
C42         C  0.65290822  0.59797639  0.54159449     1.02900
O43         O  0.68677372  0.64969775  0.57146104    -0.85000
O44         O  0.64939153  0.69970372  0.58562994    -0.82100
C45         C  0.62696822  0.71484259  0.59744448     0.98400
O46         O  0.60110477  0.70147805  0.60248927    -0.82100
O47         O  0.61511770  0.66403630  0.65321704    -0.84700
C48         C  0.62653343  0.64157388  0.66871064     1.02900
O49         O  0.63268696  0.61592256  0.65540424    -0.77500
O50         O  0.68420932  0.63056928  0.61915924    -0.77700
C51         C  0.69948937  0.64400469  0.59757880     1.02900
Cr52       Cr  0.64260825  0.66042673  0.56185116     1.93700
Cr53       Cr  0.59250460  0.65694842  0.61319459     1.93200
Cr54       Cr  0.64460740  0.60752776  0.61081933     1.39100
O55         O  0.62643092  0.64141720  0.59509147    -1.22800
C56         C  0.20300994  0.88286465  0.02020221     0.03400
C57         C  0.19942980  0.85915749  0.99777761    -0.12700
C58         C  0.20918323  0.86405322  0.96660430     0.00900
C59         C  0.22345749  0.89249698  0.95843538    -0.11200
C60         C  0.22758675  0.91605536  0.98087327     0.03400
C61         C  0.21743842  0.91114630  0.01180345    -0.10700
H62         H  0.18896918  0.83709387  0.00463778     0.09000
H63         H  0.23108135  0.89650083  0.93442621     0.06600
H64         H  0.22007298  0.92951960  0.02908370     0.06400
C65         C  0.37008447  0.43675899  0.73825969     0.03400
C66         C  0.34555561  0.45838949  0.74213087    -0.12700
C67         C  0.34911469  0.48949567  0.73210539     0.00900
C68         C  0.37756194  0.49904385  0.71862661    -0.11200
C69         C  0.40204353  0.47764325  0.71447295     0.03400
C70         C  0.39852093  0.44676071  0.72494808    -0.10700
H71         H  0.32356228  0.45093123  0.75246905     0.09000
H72         H  0.38046864  0.52306852  0.71089838     0.06600
H73         H  0.41777402  0.43042373  0.72230710     0.06400
C74         C  0.91922730  0.72521392  0.58101156     0.03400
C75         C  0.94321296  0.72038728  0.60301568    -0.12700
C76         C  0.97332310  0.73212589  0.59741724     0.00900
C77         C  0.97886008  0.75076568  0.57084380    -0.11200
C78         C  0.95507418  0.75630314  0.54895434     0.03400
C79         C  0.92532683  0.74323726  0.55391229    -0.10700
H80         H  0.93873169  0.70651179  0.62391727     0.09000
H81         H  0.00210757  0.76006223  0.56659456     0.06600
H82         H  0.90711827  0.74680975  0.53660402     0.06400
C83         C  0.19914349  0.66860652  0.75944498     0.80500
N84         N  0.20343943  0.68974483  0.78279280    -0.77800
C85         C  0.18527376  0.71583752  0.78453319     0.83000
N86         N  0.16262481  0.72055106  0.76269099    -0.77700
C87         C  0.15848861  0.69980335  0.73895113     0.83100
N88         N  0.17667045  0.67376466  0.73755429    -0.79400
O89         O  0.36775221  0.08437226  0.78233024    -0.85000
O90         O  0.33859627  0.08380097  0.84020276    -0.82100
C91         C  0.32726393  0.09285520  0.86599014     0.98400
O92         O  0.32203819  0.12168183  0.87017103    -0.82100
O93         O  0.38005490  0.14974425  0.86958147    -0.84800
C94         C  0.40510533  0.16198492  0.86004725     1.03000
O95         O  0.40833035  0.16840695  0.83108754    -0.77500
O96         O  0.40680918  0.11212492  0.79981571    -0.77700
C97         C  0.39678319  0.08730442  0.78753661     1.02900
O98         O  0.32095915  0.12758584  0.76066290    -0.85000
O99         O  0.28875080  0.12267530  0.81650227    -0.82100
C100        C  0.27980004  0.15031299  0.82251733     0.98400
O101        O  0.29963763  0.17071204  0.83006172    -0.82100
O102        O  0.35550263  0.20189224  0.83473448    -0.84700
C103        C  0.36021190  0.21208695  0.80716685     1.02900
O104        O  0.36622986  0.19359488  0.78498254    -0.77500
O105        O  0.36976480  0.13921472  0.75052716    -0.77700
C106        C  0.34218283  0.13385055  0.74106666     1.02900
Cr107      Cr  0.33061867  0.10701869  0.80097917     1.93700
Cr108      Cr  0.34024423  0.15945905  0.84858566     1.93200
Cr109      Cr  0.38533231  0.15237228  0.79316672     1.39100
O110        O  0.35202449  0.13964099  0.81418306    -1.22800
C111        C  0.05558240  0.22361492  0.82074370     0.03400
C112        C  0.04606080  0.24048872  0.84730856    -0.12700
C113        C  0.01554833  0.25222324  0.84951640     0.00900
C114        C  0.99435015  0.24672317  0.82506186    -0.11200
C115        C  0.00363808  0.22991597  0.79829568     0.03400
C116        C  0.03458048  0.21902032  0.79594027    -0.10700
H117        H  0.06220823  0.24380291  0.86659721     0.09000
H118        H  0.97045159  0.25505499  0.82712499     0.06600
H119        H  0.04211263  0.20637066  0.77522387     0.06400
C120        C  0.78261589  0.39552474  0.38260369     0.03400
C121        C  0.78433799  0.37064684  0.40430338    -0.12700
C122        C  0.77319416  0.37417374  0.43520174     0.00900
C123        C  0.76097841  0.40314475  0.44455382    -0.11200
C124        C  0.76016012  0.42858058  0.42369022     0.03400
C125        C  0.77121947  0.42476302  0.39282587    -0.10700
H126        H  0.79386845  0.34829883  0.39702282     0.09000
H127        H  0.75191353  0.40591533  0.46821117     0.06600
H128        H  0.77059614  0.44442310  0.37669928     0.06400
C129        C  0.61094452  0.93887449  0.66349481     0.03400
C130        C  0.58122995  0.94522497  0.67633491    -0.12700
C131        C  0.57297906  0.97591182  0.68459192     0.00900
C132        C  0.59480572  0.00009905  0.68056811    -0.11200
C133        C  0.62442296  0.99395996  0.66787421     0.03400
C134        C  0.63263997  0.96323693  0.65992847    -0.10700
H135        H  0.56436085  0.92650231  0.67920178     0.09000
H136        H  0.58855784  0.02384727  0.68695934     0.06600
H137        H  0.65581142  0.95840424  0.65068259     0.06400
C138        C  0.78040834  0.16666527  0.63343450     0.80500
N139        N  0.77728174  0.18590437  0.60821300    -0.77800
C140        C  0.79934590  0.20791669  0.60185462     0.83000
N141        N  0.82413997  0.21114075  0.62153633    -0.77700
C142        C  0.82731550  0.19207589  0.64696404     0.83100
N143        N  0.80556011  0.16959468  0.65253324    -0.79400
O144        O  0.91246694  0.34365464  0.06050294    -0.85000
O145        O  0.91636865  0.39791074  0.09572944    -0.82100
C146        C  0.90841026  0.42270604  0.10964384     0.98400
O147        O  0.87986972  0.42711982  0.11658731    -0.82100
O148        O  0.84834247  0.43310828  0.06060038    -0.84800
C149        C  0.83475797  0.42646938  0.03527873     1.03000
O150        O  0.82739214  0.39833921  0.02972578    -0.77500
O151        O  0.88326609  0.36667914  0.02540265    -0.77700
C152        C  0.90799477  0.35231750  0.03224933     1.02900
O153        O  0.87069558  0.31855243  0.10791587    -0.85000
O154        O  0.87940325  0.37029495  0.14541192    -0.82100
C155        C  0.85256434  0.37695971  0.15645011     0.98400
O156        O  0.83102833  0.38614217  0.13853959    -0.82100
O157        O  0.79691283  0.39663771  0.08478869    -0.84700
C158        C  0.78607008  0.37002482  0.07761157     1.02900
O159        O  0.80390589  0.34841237  0.06851913    -0.77500
O160        O  0.85740436  0.31390728  0.05845990    -0.77700
C161        C  0.86230415  0.30180102  0.08518778     1.02900
Cr162      Cr  0.89229814  0.35881229  0.10101165     1.93700
Cr163      Cr  0.84044865  0.40828694  0.09890010     1.93200
Cr164      Cr  0.84415401  0.35810767  0.04809890     1.39100
O165        O  0.85894718  0.37505976  0.08275675    -1.22800
C166        C  0.88104152  0.07595518  0.14919799     0.03400
C167        C  0.90786843  0.06487741  0.16496511    -0.12700
C168        C  0.90808950  0.03488380  0.17861865     0.00900
C169        C  0.88112301  0.01635214  0.17718063    -0.11200
C170        C  0.85424963  0.02702659  0.16178343     0.03400
C171        C  0.85424448  0.05686143  0.14796549    -0.10700
H172        H  0.92864991  0.07932097  0.16619034     0.09000
H173        H  0.88117688  0.99327860  0.18786033     0.06600
H174        H  0.83335839  0.06517242  0.13620352     0.06400
C175        C  0.42487090  0.79904951  0.34207595     0.03400
C176        C  0.43359370  0.78377692  0.37005190    -0.12700
C177        C  0.46456415  0.77365288  0.37432732     0.00900
C178        C  0.48657330  0.77813971  0.35020913    -0.11200
C179        C  0.47787896  0.79241509  0.32185229     0.03400
C180        C  0.44709165  0.80310897  0.31804916    -0.10700
H181        H  0.41640807  0.77997774  0.38846399     0.09000
H182        H  0.51049063  0.77028321  0.35344180     0.06600
H183        H  0.44036210  0.81447506  0.29628832     0.06400
C184        C  0.70598055  0.64021094  0.88965611     0.03400
C185        C  0.72136559  0.61238944  0.89814978    -0.12700
C186        C  0.73161818  0.60786847  0.92904157     0.00900
C187        C  0.72644354  0.63120082  0.95152051    -0.11200
C188        C  0.71004052  0.65850057  0.94362292     0.03400
C189        C  0.70022800  0.66309466  0.91255810    -0.10700
H190        H  0.72450678  0.59389980  0.88107216     0.09000
H191        H  0.73481863  0.62783461  0.97529490     0.06600
H192        H  0.68765784  0.68425312  0.90631179     0.06400
C193        C  0.67485013  0.81648944  0.11503092     0.80500
N194        N  0.65114664  0.81131162  0.13570797    -0.77800
C195        C  0.64606404  0.83124429  0.15998052     0.83000
N196        N  0.66491159  0.85660868  0.16346414    -0.77700
C197        C  0.68812724  0.86241232  0.14233877     0.83100
N198        N  0.69318178  0.84212786  0.11837186    -0.79400
O199        O  0.10636957  0.92003452  0.28479313    -0.85000
O200        O  0.13812863  0.92210338  0.34097505    -0.82100
C201        C  0.15246866  0.91437106  0.36549610     0.98400
O202        O  0.15775674  0.88557472  0.37078381    -0.82100
O203        O  0.09991630  0.85648245  0.37530666    -0.84800
C204        C  0.07458259  0.84347068  0.36794858     1.03000
O205        O  0.06868333  0.83738971  0.33939743    -0.77500
O206        O  0.06814955  0.89312175  0.30554934    -0.77700
C207        C  0.07756116  0.91734303  0.29141743     1.02900
O208        O  0.15242439  0.87672269  0.26242806    -0.85000
O209        O  0.18741189  0.88338815  0.31550185    -0.82100
C210        C  0.19692969  0.85590111  0.32147002     0.98400
O211        O  0.17771865  0.83539899  0.33041621    -0.82100
O212        O  0.12289845  0.80371097  0.33982855    -0.84700
C213        C  0.11572487  0.79292430  0.31308315     1.02900
O214        O  0.10780431  0.81113607  0.29124453    -0.77500
O215        O  0.10316299  0.86427902  0.25506127    -0.77700
C216        C  0.13050531  0.86927770  0.24434548     1.02900
Cr217      Cr  0.14448375  0.89819139  0.30218707     1.93700
Cr218      Cr  0.13836552  0.84679527  0.35162287     1.93200
Cr219      Cr  0.08946758  0.85255755  0.29926161     1.39100
O220        O  0.12405628  0.86577025  0.31764155    -1.22800
C221        C  0.67957704  0.69876153  0.01714053    -0.22100
C222        C  0.69233751  0.72876023  0.01349328     0.09800
C223        C  0.71016167  0.73589249  0.98638046     0.10200
C224        C  0.71541230  0.71253834  0.96386835    -0.17100
C225        C  0.70318502  0.68233040  0.96782825    -0.27500
C226        C  0.68440430  0.67553691  0.99443083     0.18600
C227        C  0.68747936  0.75194767  0.03887466     0.12500
C228        C  0.72322970  0.76819815  0.98092826    -0.11800
H229        H  0.72937760  0.71774332  0.94318860     0.12800
C230        C  0.66859795  0.64425259  0.99852472    -0.22700
H231        H  0.66589973  0.69348026  0.03799178     0.08400
C232        C  0.65772197  0.76491931  0.04530729     0.04800
C233        C  0.65431845  0.78584104  0.07043354    -0.19900
C234        C  0.68008030  0.79464847  0.08873127    -0.12200
C235        C  0.70995075  0.78196497  0.08199549     0.13500
C236        C  0.71314701  0.76043147  0.05739338    -0.22600
C237        C  0.62973099  0.75727098  0.02532540    -0.05700
H238        H  0.63149650  0.79574947  0.07557562     0.15000
C239        C  0.73830606  0.79016793  0.10124430    -0.15900
H240        H  0.73580544  0.75000301  0.05258608     0.09300
H241        H  0.65301674  0.64390227  0.01947459     0.07200
H242        H  0.68626473  0.62553695  0.00172860     0.08400
H243        H  0.65411083  0.63905400  0.97758012     0.07400
H244        H  0.74028642  0.77411210  0.99955402     0.02300
H245        H  0.70390354  0.78559299  0.98111241     0.02800
H246        H  0.73552030  0.76998321  0.95794881     0.06300
H247        H  0.60860855  0.77045963  0.03291067     0.05300
H248        H  0.62423860  0.73197014  0.02701265    -0.00500
H249        H  0.63472531  0.76346063  0.00045079     0.01000
H250        H  0.75929484  0.77674178  0.09370359     0.04700
H251        H  0.73381610  0.78477317  0.12639534     0.06600
H252        H  0.74382567  0.81538931  0.09850617     0.07500
C253        C  0.54191728  0.77856395  0.26102616    -0.22100
C254        C  0.54838780  0.80931250  0.25161886     0.09800
C255        C  0.53053523  0.83423872  0.26390221     0.10200
C256        C  0.50739464  0.82792005  0.28650087    -0.17100
C257        C  0.50132382  0.79719392  0.29658745    -0.27500
C258        C  0.51824078  0.77207290  0.28299580     0.18600
C259        C  0.57366467  0.81478559  0.22843864     0.12500
C260        C  0.53571368  0.86739555  0.25293568    -0.11800
H261        H  0.49417656  0.84708767  0.29663786     0.12800
C262        C  0.51138058  0.73819482  0.29021801    -0.22700
H263        H  0.55524134  0.75946430  0.25087790     0.08400
C264        C  0.60420534  0.82274185  0.23795039     0.04800
C265        C  0.62724273  0.82833709  0.21503824    -0.19900
C266        C  0.62066757  0.82511027  0.18290724    -0.12200
C267        C  0.59011975  0.81641147  0.17348113     0.13500
C268        C  0.56693345  0.81160300  0.19644878    -0.22600
C269        C  0.61259037  0.82467398  0.27224822    -0.05700
H270        H  0.65070011  0.83465127  0.22225785     0.15000
C271        C  0.58147455  0.81305650  0.13934760    -0.15900
H272        H  0.54339044  0.80529791  0.18949058     0.09300
H273        H  0.53211649  0.72725041  0.30144425     0.07200
H274        H  0.50626476  0.72565142  0.26801632     0.08400
H275        H  0.49085561  0.73492787  0.30584301     0.07400
H276        H  0.53166865  0.86896575  0.22722767     0.02300
H277        H  0.56002993  0.87480692  0.25803578     0.02800
H278        H  0.51952363  0.88399869  0.26476123     0.06300
H279        H  0.63761226  0.83079873  0.27558583     0.05300
H280        H  0.60828320  0.80170970  0.28373906    -0.00500
H281        H  0.59816585  0.84277047  0.28405991     0.01000
H282        H  0.59452395  0.79326034  0.12872580     0.04700
H283        H  0.58698248  0.83501468  0.12646466     0.06600
H284        H  0.55612426  0.80819311  0.13638225     0.07500
C285        C  0.34573972  0.83926665  0.35145771    -0.22100
C286        C  0.32896409  0.82558629  0.32684462     0.09800
C287        C  0.34408543  0.80443100  0.30647958     0.10200
C288        C  0.37550796  0.79655940  0.31187068    -0.17100
C289        C  0.39217956  0.80951547  0.33706275    -0.27500
C290        C  0.37731035  0.83183363  0.35663167     0.18600
C291        C  0.29508933  0.83235921  0.32409479     0.12500
C292        C  0.32688555  0.78984887  0.27941911    -0.11800
H293        H  0.38701944  0.77976228  0.29667245     0.12800
C294        C  0.39405794  0.84885178  0.38257251    -0.22700
H295        H  0.33403597  0.85579197  0.36682462     0.08400
C296        C  0.27304565  0.81537017  0.34191586     0.04800
C297        C  0.24129327  0.82329407  0.33996763    -0.19900
C298        C  0.23085427  0.84794924  0.32062658    -0.12200
C299        C  0.25302637  0.86423690  0.30181004     0.13500
C300        C  0.28492875  0.85624500  0.30392349    -0.22600
C301        C  0.28311068  0.78892063  0.36312562    -0.05700
H302        H  0.22460199  0.81047369  0.35426562     0.15000
C303        C  0.24338390  0.88946297  0.27897028    -0.15900
H304        H  0.30211168  0.86880538  0.28997519     0.09300
H305        H  0.38300384  0.84302481  0.40550260     0.07200
H306        H  0.39217984  0.87447725  0.37857465     0.08400
H307        H  0.41930195  0.84311413  0.38386859     0.07400
H308        H  0.31848942  0.80845434  0.26324167     0.02300
H309        H  0.30651433  0.77633284  0.28833038     0.02800
H310        H  0.34214483  0.77370980  0.26583326     0.06300
H311        H  0.26285890  0.77787094  0.37524413     0.05300
H312        H  0.29933728  0.79782076  0.38132467    -0.00500
H313        H  0.29519248  0.77064144  0.34910526     0.01000
H314        H  0.23364879  0.90982654  0.29182898     0.04700
H315        H  0.22562219  0.88014949  0.26247957     0.06600
H316        H  0.26354843  0.89800170  0.26480959     0.07500
C317        C  0.73671508  0.93443289  0.12357526    -0.22100
C318        C  0.75280482  0.93836800  0.15186946     0.09800
C319        C  0.74578920  0.91886931  0.17776842     0.10200
C320        C  0.72345434  0.89505002  0.17440369    -0.17100
C321        C  0.70830063  0.89019083  0.14563288    -0.27500
C322        C  0.71431608  0.91076757  0.12015592     0.18600
C323        C  0.77833796  0.96169412  0.15320727     0.12500
C324        C  0.76266388  0.92254573  0.20853887    -0.11800
H325        H  0.71870425  0.87937704  0.19392179     0.12800
C326        C  0.69719831  0.90900288  0.08929148    -0.22700
H327        H  0.74194242  0.94976469  0.10389305     0.08400
C328        C  0.80822408  0.95480847  0.14086602     0.04800
C329        C  0.83219745  0.97694890  0.14355234    -0.19900
C330        C  0.82712723  0.00572974  0.15857706    -0.12200
C331        C  0.79707125  0.01263630  0.17095488     0.13500
C332        C  0.77293703  0.99059429  0.16773712    -0.22600
C333        C  0.81497348  0.92381770  0.12545038    -0.05700
H334        H  0.85522379  0.97166662  0.13414611     0.15000
C335        C  0.78985256  0.04217997  0.18883173    -0.15900
H336        H  0.74994119  0.99562811  0.17734794     0.09300
H337        H  0.71400053  0.90320575  0.07020876     0.07200
H338        H  0.68632908  0.93205098  0.08407558     0.08400
H339        H  0.67810015  0.89152080  0.08927737     0.07400
H340        H  0.75819394  0.94623231  0.21819816     0.02300
H341        H  0.78822213  0.91941132  0.20486452     0.02800
H342        H  0.75473875  0.90505651  0.22620499     0.06300
H343        H  0.83973321  0.92204597  0.11759292     0.05300
H344        H  0.79980819  0.92087826  0.10455855    -0.00500
H345        H  0.81036490  0.90449634  0.14234463     0.01000
H346        H  0.77167406  0.05577887  0.17614018     0.04700
H347        H  0.81052641  0.05735803  0.19220026     0.06600
H348        H  0.78080123  0.03601923  0.21254752     0.07500
C349        C  0.97388889  0.98050181  0.20363532    -0.22100
C350        C  0.98337093  0.99441034  0.23177966     0.09800
C351        C  0.96999157  0.02315107  0.24103193     0.10200
C352        C  0.94651272  0.03682961  0.22235130    -0.17100
C353        C  0.93618835  0.02229942  0.19470062    -0.27500
C354        C  0.95069095  0.99414129  0.18483496     0.18600
C355        C  0.00703242  0.97782650  0.25112821     0.12500
C356        C  0.97992737  0.03882780  0.27097953    -0.11800
H357        H  0.93534250  0.05831956  0.22993889     0.12800
C358        C  0.94249900  0.97793230  0.15453789    -0.22700
H359        H  0.98458489  0.95864431  0.19637727     0.08400
C360        C  0.99858911  0.95243459  0.27054877     0.04800
C361        C  0.02209642  0.93445503  0.28487009    -0.19900
C362        C  0.05413286  0.94085743  0.27996666    -0.12200
C363        C  0.06236243  0.96779532  0.26194716     0.13500
C364        C  0.03862854  0.98580474  0.24781173    -0.22600
C365        C  0.96471402  0.94391914  0.27559973    -0.05700
H366        H  0.01522625  0.91444772  0.29897895     0.15000
C367        C  0.09586040  0.97766606  0.25669616    -0.15900
H368        H  0.04477061  0.00559684  0.23303859     0.09300
H369        H  0.93245646  0.95453512  0.15979829     0.07200
H370        H  0.96401239  0.97488342  0.14013934     0.08400
H371        H  0.92556247  0.99124034  0.14005231     0.07400
H372        H  0.00529731  0.04432182  0.26985220     0.02300
H373        H  0.97542578  0.02302441  0.29125091     0.02800
H374        H  0.96694244  0.06100131  0.27497014     0.06300
H375        H  0.96208557  0.92361949  0.29175432     0.05300
H376        H  0.95377821  0.93771364  0.25284805    -0.00500
H377        H  0.95200541  0.96409260  0.28597523     0.01000
H378        H  0.10850203  0.95972407  0.24274438     0.04700
H379        H  0.10758849  0.98116306  0.27965546     0.06600
H380        H  0.09744787  0.00004914  0.24344561     0.07500
C381        C  0.86457624  0.14558270  0.09516351    -0.22100
C382        C  0.87234577  0.17068239  0.11476420     0.09800
C383        C  0.88526856  0.16443526  0.14468028     0.10200
C384        C  0.88863894  0.13331931  0.15482851    -0.17100
C385        C  0.88020177  0.10811175  0.13555635    -0.27500
C386        C  0.86930708  0.11443662  0.10471312     0.18600
C387        C  0.86702079  0.20334658  0.10371303     0.12500
C388        C  0.89588893  0.19052980  0.16586071    -0.11800
H389        H  0.89729043  0.12866155  0.17829147     0.12800
C390        C  0.86355380  0.08915214  0.08080854    -0.22700
H391        H  0.85508214  0.15031124  0.07204404     0.08400
C392        C  0.88501303  0.21684794  0.07922109     0.04800
C393        C  0.88136894  0.24881531  0.07223813    -0.19900
C394        C  0.86062527  0.26761531  0.08950914    -0.12200
C395        C  0.84138585  0.25376664  0.11276928     0.13500
C396        C  0.84465297  0.22174480  0.11935659    -0.22600
C397        C  0.90914306  0.19808066  0.06149778    -0.05700
H398        H  0.89600363  0.25957479  0.05435640     0.15000
C399        C  0.81721807  0.27204057  0.13101906    -0.15900
H400        H  0.83022703  0.21119916  0.13753012     0.09300
H401        H  0.87731546  0.09427822  0.05920701     0.07200
H402        H  0.83832017  0.08855925  0.07470982     0.08400
H403        H  0.87086732  0.06564016  0.08899070     0.07400
H404        H  0.87570021  0.20529335  0.17287775     0.02300
H405        H  0.91346784  0.20517897  0.15340149     0.02800
H406        H  0.90683559  0.18140383  0.18767806     0.06300
H407        H  0.92204660  0.21270399  0.04415166     0.05300
H408        H  0.89766155  0.17887663  0.04843740    -0.00500
H409        H  0.92641023  0.18805668  0.07817238     0.01000
H410        H  0.79385573  0.26117774  0.12779394     0.04700
H411        H  0.81537230  0.29679075  0.12336598     0.06600
H412        H  0.82316112  0.27158785  0.15638919     0.07500
C413        C  0.80175993  0.47284816  0.96566973    -0.22100
C414        C  0.79760839  0.50216280  0.97964104     0.09800
C415        C  0.80828475  0.50724541  0.01045857     0.10200
C416        C  0.82167942  0.48242928  0.02722617    -0.17100
C417        C  0.82440601  0.45232705  0.01414656    -0.27500
C418        C  0.81509291  0.44778156  0.98246251     0.18600
C419        C  0.78002942  0.52681505  0.96278046     0.12500
C420        C  0.80503206  0.53880871  0.02587035    -0.11800
H421        H  0.82889172  0.48642652  0.05125805     0.12800
C422        C  0.81941948  0.41700920  0.96586243    -0.22700
H423        H  0.79376470  0.46940539  0.94179232     0.08400
C424        C  0.79458363  0.54699847  0.94090766     0.04800
C425        C  0.77767507  0.57255997  0.92887592    -0.19900
C426        C  0.74675190  0.57829231  0.93855154    -0.12200
C427        C  0.73174269  0.55704619  0.95920250     0.13500
C428        C  0.74862612  0.53156395  0.97104229    -0.22600
C429        C  0.82815686  0.54213422  0.93122032    -0.05700
H430        H  0.78897780  0.58884891  0.91289760     0.15000
C431        C  0.69809731  0.56063801  0.96941780    -0.15900
H432        H  0.73749804  0.51575645  0.98764394     0.09300
H433        H  0.81287995  0.41859826  0.94067381     0.07200
H434        H  0.80450178  0.39871884  0.97669960     0.08400
H435        H  0.84434195  0.40996811  0.96703825     0.07400
H436        H  0.77993988  0.54530986  0.02777905     0.02300
H437        H  0.81749960  0.55673371  0.01164246     0.02800
H438        H  0.81507357  0.53891459  0.04989978     0.06300
H439        H  0.83604539  0.56022830  0.91416185     0.05300
H440        H  0.83080424  0.51885965  0.92001094    -0.00500
H441        H  0.84350875  0.54329301  0.95217196     0.01000
H442        H  0.68491089  0.53914895  0.96329300     0.04700
H443        H  0.68611114  0.58063699  0.95798432     0.06600
H444        H  0.69703819  0.56397490  0.99526024     0.07500
C445        C  0.70429490  0.12506130  0.65244548    -0.22100
C446        C  0.71373255  0.09370206  0.65032055     0.09800
C447        C  0.74518043  0.08643552  0.64312734     0.10200
C448        C  0.76658522  0.11080823  0.63812748    -0.17100
C449        C  0.75705361  0.14214775  0.63966748    -0.27500
C450        C  0.72567238  0.14946153  0.64719362     0.18600
C451        C  0.69025546  0.06874322  0.65525852     0.12500
C452        C  0.75613767  0.05299345  0.64091714    -0.11800
H453        H  0.79077175  0.10542490  0.63252260     0.12800
C454        C  0.71496795  0.18289538  0.65047544    -0.22700
H455        H  0.68011648  0.13038773  0.65812273     0.08400
C456        C  0.68008729  0.06006502  0.68562830     0.04800
C457        C  0.65835514  0.03568907  0.68901084    -0.19900
C458        C  0.64668907  0.01987216  0.66270518    -0.12200
C459        C  0.65641557  0.02908681  0.63222680     0.13500
C460        C  0.67828724  0.05328346  0.62895508    -0.22600
C461        C  0.69260659  0.07611819  0.71439945    -0.05700
H462        H  0.65067985  0.02864676  0.71228681     0.15000
C463        C  0.64367544  0.01462447  0.60266074    -0.15900
H464        H  0.68594903  0.06032449  0.60566439     0.09300
H465        H  0.72910325  0.19480814  0.66871146     0.07200
H466        H  0.68994492  0.18437031  0.65750716     0.08400
H467        H  0.71777328  0.19540421  0.62775617     0.07400
H468        H  0.74341442  0.04080357  0.62186270     0.02300
H469        H  0.75166824  0.04076896  0.66354936     0.02800
H470        H  0.78158304  0.05148989  0.63567846     0.06300
H471        H  0.68263066  0.06603810  0.73633739     0.05300
H472        H  0.68655325  0.10136949  0.71367577    -0.00500
H473        H  0.71845008  0.07348961  0.71525667     0.01000
H474        H  0.63354254  0.03322744  0.58751435     0.04700
H475        H  0.62490644  0.99733805  0.60718202     0.06600
H476        H  0.66293438  0.00288437  0.58964553     0.07500
C477        C  0.76714207  0.29425935  0.47538028    -0.22100
C478        C  0.78221712  0.30031949  0.50390648     0.09800
C479        C  0.79357957  0.33065966  0.51002721     0.10200
C480        C  0.79030835  0.35408081  0.48711232    -0.17100
C481        C  0.77531570  0.34815867  0.45839648    -0.27500
C482        C  0.76282899  0.31794701  0.45283654     0.18600
C483        C  0.78566436  0.27478639  0.52734366     0.12500
C484        C  0.80869568  0.33845843  0.54096046    -0.11800
H485        H  0.79962369  0.37722017  0.49159708     0.12800
C486        C  0.74364270  0.31006961  0.42428309    -0.22700
H487        H  0.75804070  0.27101456  0.47098296     0.08400
C488        C  0.76023124  0.26457106  0.54594880     0.04800
C489        C  0.76533084  0.24201947  0.56944987    -0.19900
C490        C  0.79525661  0.22938005  0.57476311    -0.12200
C491        C  0.82037124  0.23846441  0.55486471     0.13500
C492        C  0.81527059  0.26137669  0.53175190    -0.22600
C493        C  0.72795704  0.27814076  0.54166895    -0.05700
H494        H  0.74598847  0.23491613  0.58440370     0.15000
C495        C  0.85251777  0.22391904  0.55634314    -0.15900
H496        H  0.83458335  0.26882945  0.51690908     0.09300
H497        H  0.72072681  0.30034856  0.43188612     0.07200
H498        H  0.75611570  0.29223337  0.41003236     0.08400
H499        H  0.73849786  0.33059354  0.40924143     0.07400
H500        H  0.83016496  0.32419624  0.54420493     0.02300
H501        H  0.79207972  0.33352968  0.56048299     0.02800
H502        H  0.81544067  0.36351023  0.54222045     0.06300
H503        H  0.71092674  0.26808816  0.55869722     0.05300
H504        H  0.71939597  0.27306403  0.51764160    -0.00500
H505        H  0.72865659  0.30386030  0.54517879     0.01000
H506        H  0.85919578  0.21525372  0.53267221     0.04700
H507        H  0.85390211  0.20357434  0.57240814     0.06600
H508        H  0.86980317  0.24177184  0.56378343     0.07500
C509        C  0.78683080  0.39603414  0.29275381    -0.22100
C510        C  0.81593590  0.38176892  0.28740048     0.09800
C511        C  0.83386661  0.37171454  0.31335686     0.10200
C512        C  0.82252140  0.37679273  0.34399154    -0.17100
C513        C  0.79316478  0.39081202  0.34945812    -0.27500
C514        C  0.77466231  0.39960871  0.32322918     0.18600
C515        C  0.82702336  0.37789320  0.25438696     0.12500
C516        C  0.86460984  0.35499144  0.30879519    -0.11800
H517        H  0.83671221  0.36974359  0.36385198     0.12800
C518        C  0.74140623  0.41121907  0.32604608    -0.22700
H519        H  0.77300049  0.40364851  0.27282251     0.08400
C520        C  0.81173023  0.35777932  0.23307178     0.04800
C521        C  0.82138233  0.35718563  0.20144589    -0.19900
C522        C  0.84634460  0.37573046  0.19067321    -0.12200
C523        C  0.86234641  0.39508760  0.21229895     0.13500
C524        C  0.85234800  0.39595906  0.24376916    -0.22600
C525        C  0.78541485  0.33674087  0.24365929    -0.05700
H526        H  0.80911995  0.34243010  0.18487593     0.15000
C527        C  0.88900134  0.41633889  0.20302444    -0.15900
H528        H  0.86388001  0.41163097  0.26001603     0.09300
H529        H  0.72599488  0.39678449  0.31095473     0.07200
H530        H  0.74008904  0.43592791  0.31802259     0.08400
H531        H  0.73176899  0.40945531  0.35014381     0.07400
H532        H  0.88165234  0.37056864  0.29681251     0.02300
H533        H  0.86096665  0.33372016  0.29435920     0.02800
H534        H  0.87496839  0.34763255  0.33155047     0.06300
H535        H  0.77702447  0.32160673  0.22427786     0.05300
H536        H  0.76526129  0.35087017  0.25198043    -0.00500
H537        H  0.79362559  0.32136038  0.26303000     0.01000
H538        H  0.88263717  0.44096301  0.20834328     0.04700
H539        H  0.89514720  0.41511954  0.17784130     0.06600
H540        H  0.91016274  0.40999028  0.21671310     0.07500
C541        C  0.94744185  0.18729874  0.74408531    -0.22100
C542        C  0.93296698  0.21251575  0.72882635     0.09800
C543        C  0.94207254  0.24340195  0.73600126     0.10200
C544        C  0.96596488  0.24835204  0.75797879    -0.17100
C545        C  0.98048053  0.22314925  0.77337900    -0.27500
C546        C  0.97091790  0.19221617  0.76653854     0.18600
C547        C  0.90651578  0.20614732  0.70740695     0.12500
C548        C  0.92577157  0.27111279  0.72137397    -0.11800
H549        H  0.97292661  0.27202808  0.76372393     0.12800
C550        C  0.98410592  0.16447061  0.78403141    -0.22700
H551        H  0.93973086  0.16371899  0.73893767     0.08400
C552        C  0.91047875  0.20492447  0.67452400     0.04800
C553        C  0.88417951  0.20042684  0.65534996    -0.19900
C554        C  0.85424237  0.19598049  0.66841204    -0.12200
C555        C  0.85058491  0.19612717  0.70152174     0.13500
C556        C  0.87678589  0.20147196  0.72054015    -0.22600
C557        C  0.94247252  0.20773907  0.65978617    -0.05700
H558        H  0.88705445  0.19991127  0.63003798     0.15000
C559        C  0.81908164  0.19180280  0.71702771    -0.15900
H560        H  0.87410535  0.20223033  0.74586996     0.09300
H561        H  0.00943512  0.16188762  0.77894177     0.07200
H562        H  0.97248234  0.14232632  0.77709720     0.08400
H563        H  0.98057399  0.16761596  0.80969094     0.07400
H564        H  0.90046480  0.27048430  0.72737635     0.02300
H565        H  0.92847998  0.27059593  0.69546529     0.02800
H566        H  0.93548493  0.29360270  0.72993831     0.06300
H567        H  0.94144883  0.20588237  0.63378740     0.05300
H568        H  0.95779351  0.18870443  0.66870640    -0.00500
H569        H  0.95310115  0.23061346  0.66570162     0.01000
H570        H  0.81012454  0.16790969  0.71241659     0.04700
H571        H  0.80229259  0.20944242  0.70788959     0.06600
H572        H  0.82042022  0.19462564  0.74292162     0.07500
C573        C  0.94369773  0.33644829  0.95126431    -0.22100
C574        C  0.96735250  0.31528412  0.95903070     0.09800
C575        C  0.97455330  0.30976903  0.99083819     0.10200
C576        C  0.95578548  0.32343236  0.01432097    -0.17100
C577        C  0.93020548  0.34289009  0.00669081    -0.27500
C578        C  0.92510717  0.35050693  0.97446226     0.18600
C579        C  0.98218714  0.29759499  0.93309397     0.12500
C580        C  0.00202219  0.28958056  0.99990177    -0.11800
H581        H  0.96063165  0.31804955  0.03871010     0.12800
C582        C  0.89979039  0.37262959  0.96365430    -0.22700
H583        H  0.93891325  0.34095206  0.92665378     0.08400
C584        C  0.97086146  0.26778577  0.92450971     0.04800
C585        C  0.98270155  0.25331341  0.89744554    -0.19900
C586        C  0.00505193  0.26821714  0.87844225    -0.12200
C587        C  0.01625675  0.29812472  0.88686980     0.13500
C588        C  0.00473354  0.31244983  0.91424986    -0.22600
C589        C  0.94524415  0.25185928  0.94303905    -0.05700
H590        H  0.97405579  0.23047481  0.89067687     0.15000
C591        C  0.03921908  0.31548577  0.86630616    -0.15900
H592        H  0.01259270  0.33570377  0.92052147     0.09300
H593        H  0.87642893  0.36244145  0.96872320     0.07200
H594        H  0.90088427  0.37700071  0.93792860     0.08400
H595        H  0.90244654  0.39557805  0.97549993     0.07400
H596        H  0.02385006  0.29982285  0.99007797     0.02300
H597        H  0.99918642  0.26557576  0.99056798     0.02800
H598        H  0.00459167  0.28789426  0.02580830     0.06300
H599        H  0.93878737  0.22895870  0.93265971     0.05300
H600        H  0.92400722  0.26685405  0.94334475    -0.00500
H601        H  0.95290854  0.24757920  0.96752624     0.01000
H602        H  0.04452115  0.33907970  0.87575058     0.04700
H603        H  0.02932343  0.31843309  0.84238912     0.06600
H604        H  0.06153971  0.30229325  0.86473173     0.07500
C605        C  0.19132400  0.15092648  0.80779085    -0.22100
C606        C  0.18302368  0.17951502  0.82138542     0.09800
C607        C  0.20587462  0.19753828  0.83669380     0.10200
C608        C  0.23706530  0.18737215  0.83643747    -0.17100
C609        C  0.24595616  0.15896839  0.82217554    -0.27500
C610        C  0.22237686  0.14009632  0.80833350     0.18600
C611        C  0.15006437  0.18987455  0.81978728     0.12500
C612        C  0.19722332  0.22708367  0.85396876    -0.11800
H613        H  0.25453197  0.20165446  0.84791540     0.12800
C614        C  0.22932014  0.10867237  0.79395694    -0.22700
H615        H  0.17328130  0.13700973  0.79673086     0.08400
C616        C  0.13995620  0.21165855  0.79697803     0.04800
C617        C  0.10869806  0.22178852  0.79732588    -0.19900
C618        C  0.08737077  0.21009231  0.81956830    -0.12200
C619        C  0.09715022  0.18682105  0.84116372     0.13500
C620        C  0.12855152  0.17734983  0.84127659    -0.22600
C621        C  0.16203199  0.22385488  0.77210753    -0.05700
H622        H  0.10094627  0.23922544  0.78051069     0.15000
C623        C  0.07503640  0.17100843  0.86388532    -0.15900
H624        H  0.13631699  0.15998328  0.85817368     0.09300
H625        H  0.20809577  0.09783105  0.78367380     0.07200
H626        H  0.23831771  0.09240720  0.81220342     0.08400
H627        H  0.24679650  0.11133068  0.77488402     0.07400
H628        H  0.17999217  0.22155181  0.87277131     0.02300
H629        H  0.18675180  0.24437456  0.83761932     0.02800
H630        H  0.21792673  0.23810510  0.86508036     0.06300
H631        H  0.15016945  0.24041032  0.75587232     0.05300
H632        H  0.17124186  0.20401914  0.75804164    -0.00500
H633        H  0.18193287  0.23628965  0.78307032     0.01000
H634        H  0.07580166  0.14531745  0.86012090     0.04700
H635        H  0.05037376  0.17849133  0.86099625     0.06600
H636        H  0.08233850  0.17607261  0.88834592     0.07500
C637        C  0.43450133  0.01552789  0.74868948    -0.22100
C638        C  0.46598002  0.02455612  0.74885651     0.09800
C639        C  0.47485463  0.05216603  0.76439425     0.10200
C640        C  0.45184658  0.07096171  0.77827276    -0.17100
C641        C  0.41982500  0.06329578  0.77662161    -0.27500
C642        C  0.41119177  0.03446064  0.76242530     0.18600
C643        C  0.48931112  0.00667641  0.73041912     0.12500
C644        C  0.50863509  0.06233914  0.76546685    -0.11800
H645        H  0.45905229  0.09255058  0.78936541     0.12800
C646        C  0.37772424  0.02341125  0.76112869    -0.22700
H647        H  0.42808111  0.99406413  0.73685326     0.08400
C648        C  0.50781167  0.98300266  0.74416220     0.04800
C649        C  0.53387870  0.97143976  0.72760658    -0.19900
C650        C  0.54175714  0.98329975  0.69779806    -0.12200
C651        C  0.52159780  0.00514501  0.68308611     0.13500
C652        C  0.49570043  0.01665667  0.69968918    -0.22600
C653        C  0.50071026  0.97096837  0.77669023    -0.05700
H654        H  0.54919579  0.95448142  0.73869424     0.15000
C655        C  0.52700730  0.01719010  0.65017401    -0.15900
H656        H  0.48114637  0.03460323  0.68910193     0.09300
H657        H  0.37587669  0.99966954  0.75076210     0.07200
H658        H  0.36361746  0.03943669  0.74626477     0.08400
H659        H  0.36775445  0.02230328  0.78524229     0.07400
H660        H  0.51764868  0.06605247  0.74124467     0.02300
H661        H  0.52293747  0.04409103  0.77724987     0.02800
H662        H  0.51156427  0.08454554  0.77860428     0.06300
H663        H  0.51750446  0.95248961  0.78398911     0.05300
H664        H  0.47678150  0.96087170  0.77726500    -0.00500
H665        H  0.50204544  0.99037443  0.79389401     0.01000
H666        H  0.50586249  0.01275946  0.63577382     0.04700
H667        H  0.54700328  0.00565955  0.63822687     0.06600
H668        H  0.53142329  0.04277583  0.65083964     0.07500
C669        C  0.05182256  0.70401242  0.62826933    -0.22100
C670        C  0.05035898  0.71427341  0.65941911     0.09800
C671        C  0.02289974  0.72879867  0.67074727     0.10200
C672        C  0.99769676  0.73362902  0.65021003    -0.17100
C673        C  0.99944510  0.72413551  0.61870680    -0.27500
C674        C  0.02653109  0.70825290  0.60785762     0.18600
C675        C  0.07821548  0.71006554  0.67949645     0.12500
C676        C  0.02033323  0.73924325  0.70441191    -0.11800
H677        H  0.97681248  0.74545799  0.65854460     0.12800
C678        C  0.02939176  0.69477707  0.57525815    -0.22700
H679        H  0.07283918  0.69242675  0.61988444     0.08400
C680        C  0.08492737  0.68116949  0.69404745     0.04800
C681        C  0.11185276  0.67835149  0.71260399    -0.19900
C682        C  0.13224222  0.70374751  0.71679901    -0.12200
C683        C  0.12609085  0.73233545  0.70104938     0.13500
C684        C  0.09884987  0.73523116  0.68299629    -0.22600
C685        C  0.06341940  0.65353925  0.69037531    -0.05700
H686        H  0.11662667  0.65640386  0.72450701     0.15000
C687        C  0.14824572  0.75972424  0.70143967    -0.15900
H688        H  0.09393127  0.75713215  0.67104113     0.09300
H689        H  0.03505515  0.66946217  0.57696117     0.07200
H690        H  0.04854168  0.70681922  0.56232812     0.08400
H691        H  0.00760332  0.69677306  0.56138934     0.07400
H692        H  0.03864011  0.75691360  0.70945639     0.02300
H693        H  0.02349551  0.71883676  0.72030538     0.02800
H694        H  0.99714387  0.74989685  0.70951128     0.06300
H695        H  0.07192974  0.63281528  0.70366025     0.05300
H696        H  0.06184965  0.64701234  0.66521206    -0.00500
H697        H  0.03971097  0.65960764  0.69924520     0.01000
H698        H  0.15451958  0.76622874  0.67692941     0.04700
H699        H  0.17042539  0.75456338  0.71376510     0.06600
H700        H  0.13668633  0.78005321  0.71279720     0.07500
C701        C  0.98591827  0.81828475  0.49294789    -0.22100
C702        C  0.99052342  0.80039924  0.46578310     0.09800
C703        C  0.97979957  0.76917655  0.46498561     0.10200
C704        C  0.96566889  0.75617036  0.49184537    -0.17100
C705        C  0.96283248  0.77343582  0.51968363    -0.27500
C706        C  0.97223695  0.80517598  0.51997937     0.18600
C707        C  0.01116730  0.81287167  0.44066162     0.12500
C708        C  0.98483377  0.74910524  0.43636980    -0.11800
H709        H  0.95872689  0.73177735  0.49180645     0.12800
C710        C  0.96888178  0.82555308  0.54862401    -0.22700
H711        H  0.99438506  0.84218375  0.49354225     0.08400
C712        C  0.99970145  0.82912444  0.41419582     0.04800
C713        C  0.02082542  0.83892080  0.39063007    -0.19900
C714        C  0.05308719  0.83283842  0.39317169    -0.12200
C715        C  0.06427572  0.81599527  0.41968528     0.13500
C716        C  0.04322318  0.80691846  0.44324897    -0.22600
C717        C  0.96533075  0.83612310  0.41099480    -0.05700
H718        H  0.01219343  0.85152877  0.37028615     0.15000
C719        C  0.09779483  0.80540312  0.42352279    -0.15900
H720        H  0.05177499  0.79399593  0.46346703     0.09300
H721        H  0.95479290  0.84657115  0.54261329     0.07200
H722        H  0.99238578  0.83314887  0.55659161     0.08400
H723        H  0.95698066  0.81350507  0.56843331     0.07400
H724        H  0.01025881  0.74692325  0.43132945     0.02300
H725        H  0.97305753  0.75985417  0.41579847     0.02800
H726        H  0.97521259  0.72519194  0.43973365     0.06300
H727        H  0.96023033  0.84910302  0.38894753     0.05300
H728        H  0.95738501  0.85060168  0.43112096    -0.00500
H729        H  0.95180453  0.81397706  0.41076414     0.01000
H730        H  0.10823247  0.81712246  0.44422443     0.04700
H731        H  0.11280120  0.80989706  0.40282601     0.06600
H732        H  0.09831182  0.77970560  0.42749546     0.07500
C733        C  0.28946719  0.55351518  0.71600696    -0.22100
C734        C  0.28021016  0.56118134  0.74661170     0.09800
C735        C  0.29145722  0.54346189  0.77221346     0.10200
C736        C  0.31305746  0.51928563  0.76668511    -0.17100
C737        C  0.32342441  0.51243020  0.73611443    -0.27500
C738        C  0.31064693  0.52909460  0.71034517     0.18600
C739        C  0.25955400  0.58860069  0.75121588     0.12500
C740        C  0.28100398  0.55042380  0.80529440    -0.11800
H741        H  0.32264610  0.50631408  0.78635810     0.12800
C742        C  0.31839767  0.52151712  0.67662097    -0.22700
H743        H  0.28024992  0.56686741  0.69639654     0.08400
C744        C  0.27207279  0.61881209  0.75538594     0.04800
C745        C  0.25168891  0.64435758  0.75876871    -0.19900
C746        C  0.21909254  0.64039619  0.75770409    -0.12200
C747        C  0.20658498  0.60989560  0.75416945     0.13500
C748        C  0.22706808  0.58443611  0.75062300    -0.22600
C749        C  0.30693885  0.62407950  0.75575693    -0.05700
H750        H  0.26124884  0.66767337  0.76150421     0.15000
C751        C  0.17198103  0.60299617  0.75515475    -0.15900
H752        H  0.21764117  0.56108658  0.74766031     0.09300
H753        H  0.33034503  0.54180232  0.66550050     0.07200
H754        H  0.29643614  0.51668359  0.66364660     0.08400
H755        H  0.33353595  0.50060918  0.67408956     0.07400
H756        H  0.25522074  0.54770162  0.80715250     0.02300
H757        H  0.28740498  0.57475559  0.81160427     0.02800
H758        H  0.29206003  0.53435205  0.82256502     0.06300
H759        H  0.31281279  0.64915167  0.75910180     0.05300
H760        H  0.31734178  0.61634429  0.73313067    -0.00500
H761        H  0.31766023  0.61053490  0.77523981     0.01000
H762        H  0.16442878  0.59365565  0.73208947     0.04700
H763        H  0.15744578  0.62364000  0.76095293     0.06600
H764        H  0.16721990  0.58513278  0.77356471     0.07500
C765        C  0.38169600  0.29810625  0.80457660    -0.22100
C766        C  0.35951383  0.30939586  0.78316908     0.09800
C767        C  0.33656378  0.28896264  0.77116310     0.10200
C768        C  0.33713620  0.25733179  0.77992655    -0.17100
C769        C  0.35965305  0.24589473  0.80088777    -0.27500
C770        C  0.38194520  0.26661168  0.81386093     0.18600
C771        C  0.36183969  0.34220624  0.77222429     0.12500
C772        C  0.31131182  0.30054769  0.74938098    -0.11800
H773        H  0.31999422  0.24135608  0.77028715     0.12800
C774        C  0.40701482  0.25629675  0.83650887    -0.22700
H775        H  0.39938712  0.31385650  0.81357806     0.08400
C776        C  0.35404343  0.36764628  0.79178371     0.04800
C777        C  0.35668873  0.39822479  0.77994833    -0.19900
C778        C  0.36629512  0.40387116  0.74881736    -0.12200
C779        C  0.37297133  0.37812029  0.72896398     0.13500
C780        C  0.37165801  0.34775880  0.74129052    -0.22600
C781        C  0.34249141  0.36253343  0.82488359    -0.05700
H782        H  0.35145859  0.41786679  0.79514439     0.15000
C783        C  0.38002019  0.38143141  0.69438533    -0.15900
H784        H  0.37739356  0.32807626  0.72629785     0.09300
H785        H  0.40460931  0.26953031  0.85879776     0.07200
H786        H  0.43044764  0.26112618  0.82621702     0.08400
H787        H  0.40595427  0.23109997  0.84223936     0.07400
H788        H  0.32177251  0.30936001  0.72717508     0.02300
H789        H  0.29799788  0.31970770  0.76088140     0.02800
H790        H  0.29455843  0.28168189  0.74329962     0.06300
H791        H  0.33654510  0.38496767  0.83658844     0.05300
H792        H  0.36080856  0.35073678  0.83904499    -0.00500
H793        H  0.32113220  0.34776161  0.82458021     0.01000
H794        H  0.40455519  0.37421532  0.68962825     0.04700
H795        H  0.37632585  0.40546612  0.68551922     0.06600
H796        H  0.36403663  0.36613808  0.68081959     0.07500
C797        C  0.17257232  0.80736391  0.90841891    -0.22100
C798        C  0.19915680  0.79734398  0.89187844     0.09800
C799        C  0.22894182  0.80854733  0.90041915     0.10200
C800        C  0.23153405  0.82942846  0.92561387    -0.17100
C801        C  0.20497720  0.83971896  0.94220085    -0.27500
C802        C  0.17503892  0.82864395  0.93339102     0.18600
C803        C  0.19519661  0.77618456  0.86473133     0.12500
C804        C  0.25786529  0.79898051  0.88248239    -0.11800
H805        H  0.25438748  0.83824770  0.93211026     0.12800
C806        C  0.14554813  0.84034345  0.94902209    -0.22700
H807        H  0.14976210  0.79891207  0.90131987     0.08400
C808        C  0.19704209  0.74343067  0.86808838     0.04800
C809        C  0.19405729  0.72445539  0.84142423    -0.19900
C810        C  0.18861600  0.73745013  0.81153731    -0.12200
C811        C  0.18650384  0.77042081  0.80836356     0.13500
C812        C  0.18997268  0.78933226  0.83504059    -0.22600
C813        C  0.20187856  0.72856534  0.89984054    -0.05700
H814        H  0.19544059  0.69925594  0.84403881     0.15000
C815        C  0.18151090  0.78598780  0.77698958    -0.15900
H816        H  0.18869657  0.81457884  0.83279304     0.09300
H817        H  0.14483142  0.83292562  0.97397861     0.07200
H818        H  0.12425316  0.83090842  0.93756582     0.08400
H819        H  0.14452675  0.86627141  0.94757976     0.07400
H820        H  0.25562288  0.80615703  0.85749702     0.02300
H821        H  0.26092166  0.77322462  0.88373696     0.02800
H822        H  0.27926021  0.81007091  0.89211616     0.06300
H823        H  0.20261902  0.70263403  0.89835471     0.05300
H824        H  0.18236399  0.73519538  0.91579413    -0.00500
H825        H  0.22429853  0.73663972  0.91006400     0.01000
H826        H  0.15796772  0.78004974  0.76795838     0.04700
H827        H  0.19981623  0.77824250  0.76013156     0.06600
H828        H  0.18275998  0.81188427  0.77870063     0.07500
C829        C  0.14156918  0.84581327  0.15873719    -0.22100
C830        C  0.15629900  0.87275269  0.14697640     0.09800
C831        C  0.16055287  0.89881627  0.16667181     0.10200
C832        C  0.15096715  0.89695645  0.19809875    -0.17100
C833        C  0.13695044  0.86977278  0.21029236    -0.27500
C834        C  0.13186637  0.84389938  0.19029295     0.18600
C835        C  0.16795648  0.87314705  0.11421412     0.12500
C836        C  0.17542635  0.92849199  0.15457053    -0.11800
H837        H  0.15471611  0.91680914  0.21343378     0.12800
C838        C  0.11775533  0.81356870  0.20155861    -0.22700
H839        H  0.13834371  0.82588408  0.14339052     0.08400
C840        C  0.19908695  0.86464454  0.10691882     0.04800
C841        C  0.20987073  0.86765720  0.07586551    -0.19900
C842        C  0.19012321  0.87883192  0.05211409    -0.12200
C843        C  0.15877276  0.88680038  0.05933679     0.13500
C844        C  0.14807888  0.88384231  0.09038970    -0.22600
C845        C  0.22089071  0.85262667  0.13195484    -0.05700
H846        H  0.23384940  0.86156814  0.07010183     0.15000
C847        C  0.13616789  0.89888152  0.03501357    -0.15900
H848        H  0.12423476  0.89043983  0.09618440     0.09300
H849        H  0.13459079  0.79417838  0.19744766     0.07200
H850        H  0.09599320  0.80877313  0.18824826     0.08400
H851        H  0.11191051  0.81364543  0.22688500     0.07400
H852        H  0.16133142  0.93810467  0.13491173     0.02300
H853        H  0.19951549  0.92361223  0.14604716     0.02800
H854        H  0.17688559  0.94664563  0.17312006     0.06300
H855        H  0.24437618  0.84695465  0.12222728     0.05300
H856        H  0.21103997  0.83104012  0.14265934    -0.00500
H857        H  0.22387963  0.87053790  0.15051390     0.01000
H858        H  0.11570097  0.88296093  0.03371007     0.04700
H859        H  0.14657670  0.90059690  0.01117866     0.06600
H860        H  0.12791637  0.92255705  0.04184252     0.07500
C861        C  0.29026228  0.05268049  0.93770305    -0.22100
C862        C  0.29267822  0.02133338  0.92868891     0.09800
C863        C  0.30891271  0.01344704  0.90097369     0.10200
C864        C  0.32155716  0.03727923  0.88223004    -0.17100
C865        C  0.31765975  0.06908998  0.88992799    -0.27500
C866        C  0.30245827  0.07679291  0.91873060     0.18600
C867        C  0.27498055  0.99728680  0.94630105     0.12500
C868        C  0.31169282  0.97989693  0.89042026    -0.11800
H869        H  0.33336193  0.03085765  0.86061258     0.12800
C870        C  0.29807629  0.11007864  0.92956630    -0.22700
H871        H  0.27764345  0.05831896  0.95910315     0.08400
C872        C  0.28911549  0.97837067  0.96945647     0.04800
C873        C  0.27245369  0.95275246  0.98174652    -0.19900
C874        C  0.24205533  0.94597715  0.97136010    -0.12200
C875        C  0.22719780  0.96636575  0.94983630     0.13500
C876        C  0.24397130  0.99167588  0.93742571    -0.22600
C877        C  0.32182935  0.98495408  0.98066922    -0.05700
H878        H  0.28357798  0.93725546  0.99855289     0.15000
C879        C  0.19382975  0.96200387  0.93932010    -0.15900
H880        H  0.23309760  0.00663520  0.91995564     0.09300
H881        H  0.32116266  0.12184233  0.93129698     0.07200
H882        H  0.28680052  0.11122585  0.95309678     0.08400
H883        H  0.28271588  0.12295182  0.91297458     0.07400
H884        H  0.28802461  0.96987155  0.88679478     0.02300
H885        H  0.32414084  0.96588372  0.90845830     0.02800
H886        H  0.32489184  0.97784493  0.86798673     0.06300
H887        H  0.32933013  0.96793367  0.99893201     0.05300
H888        H  0.32279287  0.00878520  0.99092174    -0.00500
H889        H  0.33860646  0.98357766  0.96076210     0.01000
H890        H  0.18019189  0.98349959  0.94461348     0.04700
H891        H  0.18193592  0.94220610  0.95125404     0.06600
H892        H  0.19333979  0.95783962  0.91359373     0.07500
C893        C  0.85297095  0.66788051  0.59826655    -0.22100
C894        C  0.82701881  0.68789722  0.59769478     0.09800
C895        C  0.83135761  0.72011177  0.59179030     0.10200
C896        C  0.86171833  0.73157920  0.58655194    -0.17100
C897        C  0.88776629  0.71147135  0.58642175    -0.27500
C898        C  0.88319423  0.67902314  0.59189312     0.18600
C899        C  0.79529524  0.67403707  0.59925180     0.12500
C900        C  0.80387839  0.74218898  0.59018908    -0.11800
H901        H  0.86516135  0.75636785  0.58234017     0.12800
C902        C  0.90907293  0.65510084  0.58942633    -0.22700
H903        H  0.84936647  0.64303762  0.60208726     0.08400
C904        C  0.78252140  0.65915689  0.57276906     0.04800
C905        C  0.75178717  0.64810564  0.57408640    -0.19900
C906        C  0.73296698  0.65214427  0.60094051    -0.12200
C907        C  0.74595861  0.66673923  0.62783036     0.13500
C908        C  0.77722604  0.67706466  0.62667582    -0.22600
C909        C  0.80088345  0.65598906  0.54260557    -0.05700
H910        H  0.74199671  0.63699529  0.55346834     0.15000
C911        C  0.72762495  0.67359437  0.65739499    -0.15900
H912        H  0.78721843  0.68868866  0.64689318     0.09300
H913        H  0.90225245  0.63673611  0.57237582     0.07200
H914        H  0.91286137  0.64398558  0.61271949     0.08400
H915        H  0.93151056  0.66497003  0.58094956     0.07400
H916        H  0.79131400  0.74232420  0.61306191     0.02300
H917        H  0.78757002  0.73458010  0.57146195     0.02800
H918        H  0.81135542  0.76651781  0.58484123     0.06300
H919        H  0.78694583  0.64457569  0.52389195     0.05300
H920        H  0.82209968  0.64155177  0.54663705    -0.00500
H921        H  0.80795582  0.67950016  0.53398243     0.01000
H922        H  0.73806762  0.66057408  0.67739697     0.04700
H923        H  0.70257759  0.66745477  0.65598492     0.06600
H924        H  0.72884395  0.69901920  0.66254014     0.07500
C925        C  0.69955262  0.64695455  0.80079820    -0.22100
C926        C  0.66707212  0.65003429  0.79723691     0.09800
C927        C  0.64763767  0.65129162  0.82407077     0.10200
C928        C  0.66108740  0.64837881  0.85392989    -0.17100
C929        C  0.69349845  0.64436640  0.85753270    -0.27500
C930        C  0.71310026  0.64446060  0.83068461     0.18600
C931        C  0.65390250  0.64983673  0.76512470     0.12500
C932        C  0.61280366  0.65596323  0.82121305    -0.11800
H933        H  0.64619498  0.64875126  0.87460927     0.12800
C934        C  0.74824493  0.64292227  0.83342497    -0.22700
H935        H  0.71430003  0.64615154  0.78003077     0.08400
C936        C  0.65759632  0.67535235  0.74430937     0.04800
C937        C  0.64711102  0.67260437  0.71320721    -0.19900
C938        C  0.63323149  0.64484801  0.70255668    -0.12200
C939        C  0.62795875  0.61997276  0.72402755     0.13500
C940        C  0.63861406  0.62275872  0.75497417    -0.22600
C941        C  0.67259093  0.70537006  0.75490689    -0.05700
H942        H  0.65083723  0.69174625  0.69683888     0.15000
C943        C  0.61061910  0.59067426  0.71477420    -0.15900
H944        H  0.63559912  0.60342390  0.77126149     0.09300
H945        H  0.75986238  0.64522150  0.81013961     0.07200
H946        H  0.75559479  0.62023047  0.84369063     0.08400
H947        H  0.75662355  0.66228927  0.84853335     0.07400
H948        H  0.60220057  0.63613173  0.80833184     0.02300
H949        H  0.60800225  0.67807738  0.80832871     0.02800
H950        H  0.60127098  0.65740442  0.84459815     0.06300
H951        H  0.67288988  0.72322612  0.73588451     0.05300
H952        H  0.69713538  0.70097129  0.76211641    -0.00500
H953        H  0.65929087  0.71507507  0.77511990     0.01000
H954        H  0.62438817  0.57710225  0.69737922     0.04700
H955        H  0.58752017  0.59697878  0.70465647     0.06600
H956        H  0.60637122  0.57508980  0.73528774     0.07500
C957        C  0.65744517  0.79456200  0.62359401    -0.22100
C958        C  0.62945959  0.81172410  0.62379991     0.09800
C959        C  0.60144662  0.79759600  0.61390016     0.10200
C960        C  0.60186579  0.76633789  0.60445837    -0.17100
C961        C  0.62960319  0.74859741  0.60480719    -0.27500
C962        C  0.65792129  0.76301827  0.61420889     0.18600
C963        C  0.62929024  0.84440999  0.63492563     0.12500
C964        C  0.57092281  0.81537182  0.61388392    -0.11800
H965        H  0.58014965  0.75556552  0.59709035     0.12800
C966        C  0.68831688  0.74515590  0.61567094    -0.22700
H967        H  0.67881263  0.80577844  0.63128029     0.08400
C968        C  0.62444511  0.85152231  0.66691082     0.04800
C969        C  0.61932697  0.88271332  0.67574900    -0.19900
C970        C  0.61900476  0.90680344  0.65326493    -0.12200
C971        C  0.62470778  0.89966111  0.62129088     0.13500
C972        C  0.62991711  0.86847982  0.61256529    -0.22600
C973        C  0.62375607  0.82606254  0.69146172    -0.05700
H974        H  0.61496456  0.88830961  0.70020225     0.15000
C975        C  0.62371133  0.92448050  0.59606943    -0.15900
H976        H  0.63324559  0.86260930  0.58801484     0.09300
H977        H  0.68560080  0.72460305  0.63144361     0.07200
H978        H  0.70767297  0.75977155  0.62489839     0.08400
H979        H  0.69517935  0.73722792  0.59181163     0.07400
H980        H  0.57268404  0.83588257  0.59791499     0.02300
H981        H  0.56542815  0.82355929  0.63801308     0.02800
H982        H  0.55115116  0.80063391  0.60579998     0.06300
H983        H  0.61955743  0.83562878  0.71534170     0.05300
H984        H  0.64652031  0.81350301  0.69160740    -0.00500
H985        H  0.60476030  0.80920082  0.68617124     0.01000
H986        H  0.64305191  0.94137235  0.59941257     0.04700
H987        H  0.60092135  0.93697409  0.59691455     0.06600
H988        H  0.62646224  0.91431067  0.57223525     0.07500
C989        C  0.50890033  0.75202870  0.44837073    -0.22100
C990        C  0.49843706  0.72134887  0.45338123     0.09800
C991        C  0.47470000  0.70897176  0.43418133     0.10200
C992        C  0.46274685  0.72726246  0.40946118    -0.17100
C993        C  0.47424782  0.75749586  0.40352505    -0.27500
C994        C  0.49706013  0.77033489  0.42374951     0.18600
C995        C  0.51453668  0.70218364  0.47746042     0.12500
C996        C  0.46265404  0.67627040  0.43936094    -0.11800
H997        H  0.44528626  0.71749570  0.39391234     0.12800
C998        C  0.50948145  0.80314948  0.42001290    -0.22700
H999        H  0.52701056  0.76149961  0.46337383     0.08400
C1000       C  0.54242225  0.68614557  0.47009980     0.04800
C1001       C  0.55969688  0.67222492  0.49429180    -0.19900
C1002       C  0.55024617  0.67450989  0.52587827    -0.12200
C1003       C  0.52129028  0.68928484  0.53307783     0.13500
C1004       C  0.50372714  0.70270177  0.50857747    -0.22600
C1005       C  0.55468833  0.68492124  0.43686715    -0.05700
H1006       H  0.58173588  0.66088603  0.48867719     0.15000
C1007       C  0.50888169  0.69352362  0.56602079    -0.15900
H1008       H  0.48224050  0.71513193  0.51400032     0.09300
H1009       H  0.53498636  0.80227875  0.41496469     0.07200
H1010       H  0.50562074  0.81628418  0.44216092     0.08400
H1011       H  0.49785725  0.81642256  0.40092429     0.07400
H1012       H  0.45262021  0.67423753  0.46338025     0.02300
H1013       H  0.48206286  0.65917372  0.43677621     0.02800
H1014       H  0.44412904  0.67014681  0.42221886     0.06300
H1015       H  0.57688930  0.67145844  0.43523652     0.05300
H1016       H  0.55924957  0.70899128  0.42811380    -0.00500
H1017       H  0.53723255  0.67351852  0.42144864     0.01000
H1018       H  0.50590540  0.71887391  0.57086025     0.04700
H1019       H  0.52415341  0.68391919  0.58452587     0.06600
H1020       H  0.48572325  0.68192039  0.56814511     0.07500
C1021       C  0.69740957  0.56343468  0.47241202    -0.22100
C1022       C  0.69162306  0.53150344  0.47709063     0.09800
C1023       C  0.67057168  0.52195534  0.50087335     0.10200
C1024       C  0.65655968  0.54457234  0.52018816    -0.17100
C1025       C  0.66333005  0.57650940  0.51651656    -0.27500
C1026       C  0.68384141  0.58613644  0.49203983     0.18600
C1027       C  0.71096290  0.50822471  0.46005144     0.12500
C1028       C  0.66401702  0.48778781  0.50678255    -0.11800
H1029       H  0.64124560  0.53719916  0.53918688     0.12800
C1030       C  0.69396121  0.61962212  0.48721200    -0.22700
H1031       H  0.71399487  0.57056706  0.45442185     0.08400
C1032       C  0.70064386  0.49356840  0.43233088     0.04800
C1033       C  0.71827856  0.46876950  0.41968779    -0.19900
C1034       C  0.74595618  0.45847072  0.43421001    -0.12200
C1035       C  0.75730061  0.47474956  0.46075010     0.13500
C1036       C  0.73952498  0.49926053  0.47341621    -0.22600
C1037       C  0.67080433  0.50370614  0.41657266    -0.05700
H1038       H  0.70971213  0.45643932  0.39923693     0.15000
C1039       C  0.78795128  0.46687247  0.47635240    -0.15900
H1040       H  0.74763235  0.51100565  0.49441303     0.09300
H1041       H  0.68714354  0.62747584  0.46330618     0.07200
H1042       H  0.71981376  0.62119442  0.48937185     0.08400
H1043       H  0.68373610  0.63612041  0.50435791     0.07400
H1044       H  0.68606796  0.47544518  0.51287035     0.02300
H1045       H  0.65388668  0.47702961  0.48543475     0.02800
H1046       H  0.64719075  0.48436726  0.52644929     0.06300
H1047       H  0.66610608  0.48980948  0.39509980     0.05300
H1048       H  0.67258604  0.52872341  0.40969424    -0.00500
H1049       H  0.65069867  0.50072759  0.43288061     0.01000
H1050       H  0.80295283  0.48806269  0.47692949     0.04700
H1051       H  0.80127556  0.44843165  0.46384901     0.06600
H1052       H  0.78352498  0.45890406  0.50082459     0.07500
C1053       C  0.50202100  0.55226302  0.63251163    -0.22100
C1054       C  0.51048433  0.52657358  0.65105387     0.09800
C1055       C  0.54228699  0.51828313  0.65413615     0.10200
C1056       C  0.56526464  0.53758913  0.64049049    -0.17100
C1057       C  0.55681592  0.56496354  0.62426267    -0.27500
C1058       C  0.52478054  0.57173618  0.61918590     0.18600
C1059       C  0.48543219  0.51092155  0.66912835     0.12500
C1060       C  0.55183675  0.48965729  0.67245674    -0.11800
H1061       H  0.58981957  0.53243983  0.64426285     0.12800
C1062       C  0.51437845  0.59971664  0.60016069    -0.22700
H1063       H  0.47743586  0.55801987  0.62987984     0.08400
C1064       C  0.47706678  0.52159165  0.69938387     0.04800
C1065       C  0.45021427  0.50951809  0.71401494    -0.19900
C1066       C  0.43118072  0.48770224  0.69871408    -0.12200
C1067       C  0.43950617  0.47719482  0.66828094     0.13500
C1068       C  0.46691243  0.48856602  0.65411149    -0.22600
C1069       C  0.49575211  0.54663391  0.71565325    -0.05700
H1070       H  0.44351620  0.51773923  0.73715937     0.15000
C1071       C  0.41921235  0.45557589  0.64930062    -0.15900
H1072       H  0.47300523  0.48120112  0.63050832     0.09300
H1073       H  0.52080323  0.62175710  0.61216730     0.07200
H1074       H  0.48859503  0.60005210  0.59689828     0.08400
H1075       H  0.52546211  0.59902231  0.57653779     0.07400
H1076       H  0.54118870  0.46857656  0.66172819     0.02300
H1077       H  0.54374859  0.49157338  0.69717424     0.02800
H1078       H  0.57765157  0.48654262  0.67254277     0.06300
H1079       H  0.48576057  0.55245274  0.73904790     0.05300
H1080       H  0.49586151  0.56830613  0.70119661    -0.00500
H1081       H  0.52020646  0.53862340  0.71910950     0.01000
H1082       H  0.41357128  0.46680247  0.62644030     0.04700
H1083       H  0.39668733  0.45010455  0.66093660     0.06600
H1084       H  0.43195731  0.43337086  0.64482659     0.07500
C1085       C  0.17911732  0.44026989  0.26601904    -0.22100
C1086       C  0.20863839  0.44641373  0.25298360     0.09800
C1087       C  0.21420941  0.47516822  0.23762715     0.10200
C1088       C  0.18979760  0.49702264  0.23510118    -0.17100
C1089       C  0.15997184  0.49066510  0.24750971    -0.27500
C1090       C  0.15468241  0.46211020  0.26364070     0.18600
C1091       C  0.23330385  0.42222385  0.25565714     0.12500
C1092       C  0.24593470  0.48278257  0.22411559    -0.11800
H1093       H  0.19384271  0.51902664  0.22300662     0.12800
C1094       C  0.12375126  0.45492893  0.27923932    -0.22700
H1095       H  0.17523906  0.41821918  0.27808508     0.08400
C1096       C  0.25031464  0.41804269  0.28368790     0.04800
C1097       C  0.27250206  0.39389080  0.28557706    -0.19900
C1098       C  0.27843599  0.37428554  0.25985756    -0.12200
C1099       C  0.26163618  0.37874403  0.23161940     0.13500
C1100       C  0.23910537  0.40263236  0.22994151    -0.22600
C1101       C  0.24524544  0.43927871  0.31141666    -0.05700
H1102       H  0.28552319  0.39045433  0.30712792     0.15000
C1103       C  0.26652766  0.35771238  0.20367195    -0.15900
H1104       H  0.22575460  0.40596176  0.20857901     0.09300
H1105       H  0.12463917  0.43263898  0.29270631     0.07200
H1106       H  0.10510076  0.45252754  0.26141931     0.08400
H1107       H  0.11751010  0.47394714  0.29583636     0.07400
H1108       H  0.25221267  0.46549302  0.20573368     0.02300
H1109       H  0.26376493  0.48203627  0.24301491     0.02800
H1110       H  0.24642018  0.50645920  0.21328483     0.06300
H1111       H  0.26087473  0.43311464  0.33129631     0.05300
H1112       H  0.22067033  0.43744087  0.31975738    -0.00500
H1113       H  0.25013339  0.46385741  0.30444636     0.01000
H1114       H  0.26231925  0.33299049  0.21057900     0.04700
H1115       H  0.29078410  0.36022274  0.19462129     0.06600
H1116       H  0.25031358  0.36361575  0.18418665     0.07500
C1117       C  0.13788165  0.65247297  0.25854352    -0.22100
C1118       C  0.12151136  0.66054142  0.28595544     0.09800
C1119       C  0.10423116  0.63748503  0.30224760     0.10200
C1120       C  0.10293125  0.60697101  0.29018016    -0.17100
C1121       C  0.11849994  0.59911349  0.26221275    -0.27500
C1122       C  0.13662303  0.62200330  0.24642225     0.18600
C1123       C  0.11982716  0.69396172  0.29493749     0.12500
C1124       C  0.08681202  0.64526603  0.33204261    -0.11800
H1125       H  0.08931154  0.58924904  0.30231497     0.12800
C1126       C  0.15411927  0.61539105  0.21634153    -0.22700
H1127       H  0.15094169  0.67034033  0.24598772     0.08400
C1128       C  0.14270142  0.70832858  0.31382426     0.04800
C1129       C  0.14042573  0.74055854  0.32008828    -0.19900
C1130       C  0.11605910  0.75872057  0.30740418    -0.12200
C1131       C  0.09266398  0.74391385  0.28918748     0.13500
C1132       C  0.09493029  0.71175048  0.28323219    -0.22600
C1133       C  0.16954358  0.68970052  0.32704975    -0.05700
H1134       H  0.15818958  0.75177910  0.33423700     0.15000
C1135       C  0.06474085  0.76152925  0.27661525    -0.15900
H1136       H  0.07731969  0.70035141  0.26902122     0.09300
H1137       H  0.17945734  0.61987132  0.21986359     0.07200
H1138       H  0.14539006  0.63110452  0.19747336     0.08400
H1139       H  0.15142225  0.59094877  0.20819991     0.07400
H1140       H  0.06900942  0.66359975  0.32728257     0.02300
H1141       H  0.10346669  0.65397782  0.34994119     0.02800
H1142       H  0.07462509  0.62448497  0.34192159     0.06300
H1143       H  0.18534837  0.70448856  0.34137222     0.05300
H1144       H  0.18346552  0.67938330  0.30758687    -0.00500
H1145       H  0.16042591  0.67060358  0.34225333     0.01000
H1146       H  0.07230355  0.77896674  0.25880225     0.04700
H1147       H  0.05235860  0.77349941  0.29617370     0.06600
H1148       H  0.04776984  0.74566676  0.26504664     0.07500
C1149       C  0.01122272  0.48364610  0.19776673    -0.22100
C1150       C  0.00627660  0.49542126  0.16744339     0.09800
C1151       C  0.02501488  0.52020250  0.15612874     0.10200
C1152       C  0.04932211  0.53175692  0.17504487    -0.17100
C1153       C  0.05516801  0.51895825  0.20490632    -0.19500
C1154       C  0.03525613  0.49520491  0.21675010     0.18600
C1155       C  0.98213712  0.48008179  0.14789348     0.12500
C1156       C  0.01972871  0.53389794  0.12396117    -0.11800
H1157       H  0.06454202  0.55001467  0.16607729     0.12800
C1158       C  0.03857533  0.48156776  0.24928862    -0.22700
H1159       H  0.99645891  0.46489052  0.20651353     0.08400
C1160       C  0.98913718  0.45277017  0.13082460     0.04800
C1161       C  0.96474583  0.43572631  0.11709794    -0.19900
C1162       C  0.93319927  0.44495977  0.12035866    -0.12200
C1163       C  0.92656766  0.47371354  0.13585452     0.13500
C1164       C  0.95119808  0.49076878  0.14943655    -0.22600
C1165       C  0.02231900  0.44103314  0.12800991    -0.05700
H1166       H  0.97043875  0.41423598  0.10491192     0.15000
C1167       C  0.89383846  0.48665881  0.13877839    -0.15900
H1168       H  0.94619136  0.51195855  0.16245939     0.09300
H1169       H  0.04415940  0.45624958  0.24758756     0.07200
H1170       H  0.01616159  0.48436924  0.26228287     0.08400
H1171       H  0.05702126  0.49311046  0.26331600     0.07400
H1172       H  0.99562239  0.54351132  0.12249619     0.02300
H1173       H  0.02272890  0.51550914  0.10584620     0.02800
H1174       H  0.03646822  0.55309672  0.11870435     0.06300
H1175       H  0.02378089  0.41931815  0.11381556     0.05300
H1176       H  0.03184304  0.43584545  0.15169290    -0.00500
H1177       H  0.03710914  0.45908162  0.11647224     0.01000
H1178       H  0.87924907  0.47107237  0.15368882     0.04700
H1179       H  0.88325979  0.48912904  0.11510788     0.06600
H1180       H  0.89364106  0.51012147  0.14992694     0.07500
C1181       C  0.33690132  0.25184834  0.36113295    -0.22100
C1182       C  0.30897823  0.23474519  0.36242179     0.09800
C1183       C  0.28471569  0.24152528  0.34106674     0.10200
C1184       C  0.28897603  0.26534167  0.31872529    -0.17100
C1185       C  0.31705597  0.28225317  0.31709384    -0.27500
C1186       C  0.34124440  0.27569303  0.33880659     0.18600
C1187       C  0.30529420  0.21013094  0.38665602     0.12500
C1188       C  0.25460341  0.22321854  0.34153025    -0.11800
H1189       H  0.27057198  0.27032893  0.30195960     0.12800
C1190       C  0.37142302  0.29391032  0.33985874    -0.22700
H1191       H  0.35530512  0.24673553  0.37786799     0.08400
C1192       C  0.31724340  0.17969348  0.38220938     0.04800
C1193       C  0.31201510  0.15683508  0.40539062    -0.19900
C1194       C  0.29476985  0.16368607  0.43268485    -0.12200
C1195       C  0.28221357  0.19413113  0.43668538     0.13500
C1196       C  0.28826914  0.21711750  0.41391125    -0.22600
C1197       C  0.33509877  0.17131623  0.35283756    -0.05700
H1198       H  0.32140931  0.13347518  0.40223669     0.15000
C1199       C  0.26107420  0.20288589  0.46369921    -0.15900
H1200       H  0.27871429  0.24044726  0.41689421     0.09300
H1201       H  0.39139638  0.27800862  0.33489869     0.07200
H1202       H  0.37441370  0.30402716  0.36365649     0.08400
H1203       H  0.37219926  0.31357993  0.32287874     0.07400
H1204       H  0.24268352  0.22616148  0.36454796     0.02300
H1205       H  0.25966073  0.19801981  0.33773141     0.02800
H1206       H  0.23830699  0.23116481  0.32285736     0.06300
H1207       H  0.34251545  0.14639838  0.35293492     0.05300
H1208       H  0.35638648  0.18606657  0.35086270    -0.00500
H1209       H  0.32011808  0.17529168  0.33193727     0.01000
H1210       H  0.27273990  0.22073596  0.47847702     0.04700
H1211       H  0.25449475  0.18265350  0.47858470     0.06600
H1212       H  0.23893832  0.21287273  0.45441507     0.07500
C1213       C  0.30705367  0.11468110  0.66097583    -0.22100
C1214       C  0.32717483  0.13112359  0.64095470     0.09800
C1215       C  0.35142558  0.14938643  0.65363088     0.10200
C1216       C  0.35549666  0.15014476  0.68635617    -0.17100
C1217       C  0.33547486  0.13348631  0.70675559    -0.27500
C1218       C  0.31069970  0.11562763  0.69366979     0.18600
C1219       C  0.32150691  0.12931164  0.60678416     0.12500
C1220       C  0.37277069  0.16819274  0.63261999    -0.11800
H1221       H  0.37436897  0.16397153  0.69603951     0.12800
C1222       C  0.28817474  0.09699497  0.71357889    -0.22700
H1223       H  0.28831562  0.10098132  0.65081499     0.08400
C1224       C  0.33551351  0.10591294  0.58810407     0.04800
C1225       C  0.32730121  0.10361143  0.55629003    -0.19900
C1226       C  0.30522617  0.12401619  0.54295916    -0.12200
C1227       C  0.29114974  0.14736287  0.56183149     0.13500
C1228       C  0.29959501  0.14976981  0.59352628    -0.22600
C1229       C  0.35844115  0.08294797  0.60196917    -0.05700
H1230       H  0.33774443  0.08552340  0.54183351     0.15000
C1231       C  0.26631000  0.16893451  0.54908118    -0.15900
H1232       H  0.28858200  0.16726778  0.60829435     0.09300
H1233       H  0.30115960  0.08003038  0.72845581     0.07200
H1234       H  0.27136039  0.08351994  0.69910605     0.08400
H1235       H  0.27430225  0.11317270  0.72839645     0.07400
H1236       H  0.35878273  0.18530237  0.61887648     0.02300
H1237       H  0.38535982  0.15246036  0.61617150     0.02800
H1238       H  0.39045770  0.18133210  0.64632981     0.06300
H1239       H  0.36705911  0.06605347  0.58413898     0.05300
H1240       H  0.34698681  0.06951202  0.62118555    -0.00500
H1241       H  0.37893028  0.09559646  0.61156494     0.01000
H1242       H  0.24695682  0.15505350  0.53878868     0.04700
H1243       H  0.27657212  0.18448627  0.53091908     0.06600
H1244       H  0.25624084  0.18409164  0.56771300     0.07500
C1245       C  0.18153330  0.99286221  0.39707581    -0.22100
C1246       C  0.20001672  0.98297234  0.42222312     0.09800
C1247       C  0.20023753  0.95116222  0.43093106     0.10200
C1248       C  0.18328798  0.92952811  0.41290108    -0.17100
C1249       C  0.16592821  0.93899177  0.38636869    -0.27500
C1250       C  0.16445651  0.97153496  0.37899049     0.18600
C1251       C  0.21978857  0.00666454  0.43787075     0.12500
C1252       C  0.21839441  0.94012771  0.45914181    -0.11800
H1253       H  0.18433352  0.90496312  0.41918518     0.12800
C1254       C  0.14581586  0.98447321  0.35180226    -0.22700
H1255       H  0.18129374  0.01752376  0.39098702     0.08400
C1256       C  0.25060069  0.01265801  0.42732444     0.04800
C1257       C  0.26694016  0.03838347  0.43940659    -0.19900
C1258       C  0.25300702  0.05844779  0.46141236    -0.12200
C1259       C  0.22230497  0.05222427  0.47225389     0.13500
C1260       C  0.20610296  0.02623770  0.46044076    -0.22600
C1261       C  0.26570807  0.99275837  0.40231759    -0.05700
H1262       H  0.29036249  0.04348452  0.43095152     0.15000
C1263       C  0.20598755  0.07388049  0.49489992    -0.15900
H1264       H  0.18220398  0.02184187  0.46786233     0.09300
H1265       H  0.15542623  0.97567137  0.32922958     0.07200
H1266       H  0.14675697  0.01042887  0.35071113     0.08400
H1267       H  0.12082742  0.97777959  0.35433890     0.07400
H1268       H  0.20960818  0.95219356  0.48049285     0.02300
H1269       H  0.24362484  0.94544759  0.45608916     0.02800
H1270       H  0.21594487  0.91450995  0.46284955     0.06300
H1271       H  0.28971753  0.00095103  0.39652823     0.05300
H1272       H  0.25155298  0.99368442  0.38051527    -0.00500
H1273       H  0.26736561  0.96814048  0.41045440     0.01000
H1274       H  0.18161741  0.06622779  0.49983291     0.04700
H1275       H  0.20506220  0.09787487  0.48484902     0.06600
H1276       H  0.21873033  0.07440203  0.51754260     0.07500
C1277       C  0.46908361  0.28691625  0.15793581    -0.22100
C1278       C  0.44273374  0.30556409  0.15199160     0.09800
C1279       C  0.43869523  0.31917656  0.12204596     0.10200
C1280       C  0.46136517  0.31406499  0.09872797    -0.17100
C1281       C  0.48777547  0.29541042  0.10459139    -0.27500
C1282       C  0.49144353  0.28118615  0.13443353     0.18600
C1283       C  0.41897244  0.30954843  0.17704156     0.12500
C1284       C  0.41019795  0.33857353  0.11453451    -0.11800
H1285       H  0.45853583  0.32471423  0.07575664     0.12800
C1286       C  0.51781401  0.25895081  0.14196894    -0.22700
H1287       H  0.47182579  0.27617722  0.18088288     0.08400
C1288       C  0.39794283  0.28528523  0.18481202     0.04800
C1289       C  0.37527324  0.29036223  0.20813615    -0.19900
C1290       C  0.37286369  0.31926801  0.22346919    -0.12200
C1291       C  0.39421980  0.34347968  0.21595640     0.13500
C1292       C  0.41701682  0.33826251  0.19274651    -0.22600
C1293       C  0.39885230  0.25438206  0.16789304    -0.05700
H1294       H  0.35882776  0.27190756  0.21394354     0.15000
C1295       C  0.39434432  0.37466078  0.23241973    -0.15900
H1296       H  0.43343354  0.35671768  0.18684287     0.09300
H1297       H  0.50795070  0.23616751  0.14976342     0.07200
H1298       H  0.53220586  0.26874051  0.16123361     0.08400
H1299       H  0.53330639  0.25419989  0.12161284     0.07400
H1300       H  0.40935363  0.35945937  0.12992988     0.02300
H1301       H  0.38873633  0.32439703  0.11830286     0.02800
H1302       H  0.41037913  0.34679858  0.08975305     0.06300
H1303       H  0.38013122  0.23835425  0.17627157     0.05300
H1304       H  0.42170883  0.24269934  0.17187273    -0.00500
H1305       H  0.39555190  0.25826839  0.14230925     0.01000
H1306       H  0.41773699  0.37869690  0.24293552     0.04700
H1307       H  0.37691212  0.37625540  0.25166055     0.06600
H1308       H  0.38950348  0.39357436  0.21515686     0.07500
C1309       C  0.70164146  0.36743461  0.05168509    -0.22100
C1310       C  0.68882639  0.34700481  0.07410871     0.09800
C1311       C  0.70758748  0.33604555  0.09912677     0.10200
C1312       C  0.73920042  0.34479978  0.10040643    -0.17100
C1313       C  0.75214885  0.36458566  0.07753788    -0.27500
C1314       C  0.73315550  0.37644393  0.05316424     0.18600
C1315       C  0.65638691  0.33571321  0.06974520     0.12500
C1316       C  0.69427005  0.31517233  0.12443647    -0.11800
H1317       H  0.75402526  0.33577745  0.11897987     0.12800
C1318       C  0.74649831  0.39737150  0.02792788    -0.22700
H1319       H  0.68716103  0.37555798  0.03244748     0.08400
C1320       C  0.63018375  0.35502377  0.07537438     0.04800
C1321       C  0.60001157  0.34287404  0.07092160    -0.19900
C1322       C  0.59547873  0.31169316  0.06155289    -0.12200
C1323       C  0.62189723  0.29216218  0.05683777     0.13500
C1324       C  0.65195232  0.30475681  0.06005449    -0.22600
C1325       C  0.63405229  0.38816093  0.08663251    -0.05700
H1326       H  0.57981145  0.35775452  0.07483002     0.15000
C1327       C  0.61952461  0.25763870  0.05010376    -0.15900
H1328       H  0.67220474  0.28996185  0.05598350     0.09300
H1329       H  0.75618999  0.41893377  0.03860711     0.07200
H1330       H  0.72847540  0.40440360  0.01053261     0.08400
H1331       H  0.76537353  0.38477545  0.01523331     0.07400
H1332       H  0.68626214  0.29275703  0.11418301     0.02300
H1333       H  0.67416642  0.32703576  0.13597076     0.02800
H1334       H  0.71191358  0.30964973  0.14274285     0.06300
H1335       H  0.61110128  0.39972189  0.09071198     0.05300
H1336       H  0.64706514  0.40209459  0.06885337    -0.00500
H1337       H  0.64719295  0.38823784  0.10909105     0.01000
H1338       H  0.62889047  0.25276381  0.02624831     0.04700
H1339       H  0.59534597  0.24858595  0.05186188     0.06600
H1340       H  0.63356636  0.24439089  0.06757977     0.07500
C1341       C  0.44697588  0.18274132  0.93629633    -0.22100
C1342       C  0.46951664  0.20361654  0.92488901     0.09800
C1343       C  0.47402177  0.20699031  0.89231826     0.10200
C1344       C  0.45411545  0.19108368  0.87170115    -0.17100
C1345       C  0.42932495  0.17230427  0.88293526    -0.27500
C1346       C  0.42669499  0.16701839  0.91588441     0.18600
C1347       C  0.48564259  0.22394187  0.94767969     0.12500
C1348       C  0.49913856  0.22818992  0.87942778    -0.11800
H1349       H  0.45699747  0.19481030  0.84666952     0.12800
C1350       C  0.40230959  0.14572872  0.93020293    -0.22700
H1351       H  0.44419479  0.18005350  0.96149754     0.08400
C1352       C  0.47183119  0.25225731  0.95756549     0.04800
C1353       C  0.48579437  0.26928861  0.98181854    -0.19900
C1354       C  0.51303310  0.25846275  0.99669763    -0.12200
C1355       C  0.52739159  0.23050852  0.98602766     0.13500
C1356       C  0.51349060  0.21362936  0.96149505    -0.22600
C1357       C  0.44176725  0.26391592  0.94320861    -0.05700
H1358       H  0.47476445  0.29060766  0.99007103     0.15000
C1359       C  0.55625147  0.21736870  0.00145322    -0.15900
H1360       H  0.52373925  0.19174820  0.95375097     0.09300
H1361       H  0.37854516  0.15556373  0.92655346     0.07200
H1362       H  0.40548669  0.14302266  0.95596238     0.08400
H1363       H  0.40403561  0.12207943  0.91961021     0.07400
H1364       H  0.52238109  0.22016994  0.88784160     0.02300
H1365       H  0.49506033  0.25254182  0.88745938     0.02800
H1366       H  0.49951162  0.22823972  0.85333348     0.06300
H1367       H  0.43411509  0.28642661  0.95371759     0.05300
H1368       H  0.42286902  0.24650120  0.94707481    -0.00500
H1369       H  0.44503572  0.26761348  0.91758031     0.01000
H1370       H  0.56285486  0.19427428  0.99152488     0.04700
H1371       H  0.55204016  0.21420889  0.02702223     0.06600
H1372       H  0.57631474  0.23333725  0.99759795     0.07500
loop_ 
_geom_bond_atom_site_label_1 
_geom_bond_atom_site_label_2 
_geom_bond_distance 
_geom_bond_site_symmetry_2 
_ccdc_geom_bond_type 
C1            C2   1.407       .  A
C1            C6   1.403       .  A
C1         C1322   1.483       .  S
C2            C3   1.404       .  A
C2            H7   1.083       .  S
C3            C4   1.403       .  A
C3         C1354   1.484   1_554  S
C4            C5   1.400       .  A
C4            H8   1.084       .  S
C5            C6   1.401       .  A
C5         C1281   1.478       .  S
C6            H9   1.084       .  S
C10          C11   1.404       .  A
C10          C15   1.403       .  A
C10        C1226   1.480       .  S
C11          C12   1.402       .  A
C11          H16   1.084       .  S
C12          C13   1.403       .  A
C12        C1258   1.480       .  S
C13          C14   1.403       .  A
C13          H17   1.084       .  S
C14          C15   1.403       .  A
C14        C1194   1.481       .  S
C15          H18   1.084       .  S
C19          C20   1.403       .  A
C19          C24   1.406       .  A
C19        C1121   1.478       .  S
C20          C21   1.404       .  A
C20          H25   1.084       .  S
C21          C22   1.402       .  A
C21        C1089   1.482       .  S
C22          C23   1.402       .  A
C22          H26   1.084       .  S
C23          C24   1.403       .  A
C23        C1153   1.481       .  S
C24          H27   1.084       .  S
C28        C1290   1.472       .  S
C28          N29   1.358       .  A
C28          N33   1.357       .  A
N29          C30   1.358       .  A
C30        C1098   1.475       .  S
C30          N31   1.359       .  A
N31          C32   1.358       .  A
C32        C1185   1.473       .  S
C32          N33   1.357       .  A
O34         Cr52   1.984       .  S
O34          C42   1.262       .  A
O35         Cr52   1.996       .  S
O35          C36   1.265       .  A
C36        C1002   1.481       .  S
C36          O37   1.262       .  A
O37         Cr53   1.988       .  S
O38         Cr53   1.986       .  S
O38          C39   1.261       .  A
C39        C1057   1.472       .  S
C39          O40   1.263       .  A
O40         Cr54   1.990       .  S
O41         Cr54   2.002       .  S
O41          C42   1.265       .  A
C42        C1025   1.477       .  S
O43         Cr52   1.985       .  S
O43          C51   1.262       .  A
O44         Cr52   1.985       .  S
O44          C45   1.259       .  A
C45         C961   1.482       .  S
C45          O46   1.262       .  A
O46         Cr53   1.990       .  S
O47         Cr53   1.986       .  S
O47          C48   1.262       .  A
C48         C938   1.477       .  S
C48          O49   1.263       .  A
O49         Cr54   1.996       .  S
O50         Cr54   1.992       .  S
O50          C51   1.262       .  A
C51         C906   1.480       .  S
Cr52         O55   1.768       .  S
Cr53         O55   1.768       .  S
Cr54         O55   1.773       .  S
C56          C57   1.403   1_554  A
C56          C61   1.402       .  A
C56         C842   1.473       .  S
C57          C58   1.404       .  A
C57          H62   1.083   1_556  S
C58          C59   1.403       .  A
C58         C801   1.484       .  S
C59          C60   1.402       .  A
C59          H63   1.084       .  S
C60          C61   1.400   1_556  A
C60         C874   1.476       .  S
C61          H64   1.084       .  S
C65          C66   1.406       .  A
C65          C70   1.405       .  A
C65         C778   1.483       .  S
C66          C67   1.403       .  A
C66          H71   1.084       .  S
C67          C68   1.402       .  A
C67         C737   1.480       .  S
C68          C69   1.400       .  A
C68          H72   1.084       .  S
C69          C70   1.400       .  A
C69        C1066   1.476       .  S
C70          H73   1.084       .  S
C74          C75   1.405       .  A
C74          C79   1.408       .  A
C74         C897   1.484       .  S
C75          C76   1.401       .  A
C75          H80   1.084       .  S
C76          C77   1.401       .  A
C76         C673   1.479       .  S
C77          C78   1.401       .  A
C77          H81   1.084   1_655  S
C78          C79   1.404       .  A
C78         C705   1.480       .  S
C79          H82   1.084       .  S
C83         C746   1.477       .  S
C83          N84   1.358       .  A
C83          N88   1.358       .  A
N84          C85   1.360       .  A
C85         C810   1.484       .  S
C85          N86   1.359       .  A
N86          C87   1.359       .  A
C87         C682   1.477       .  S
C87          N88   1.358       .  A
O89        Cr107   2.019       .  S
O89          C97   1.267       .  A
O90        Cr107   1.970       .  S
O90          C91   1.260       .  A
C91         C865   1.493       .  S
C91          O92   1.265       .  A
O92        Cr108   2.011       .  S
O93        Cr108   1.968       .  S
O93          C94   1.257       .  A
C94        C1345   1.492       .  S
C94          O95   1.269       .  A
O95        Cr109   2.015       .  S
O96        Cr109   1.969       .  S
O96          C97   1.260       .  A
C97         C641   1.495       .  S
O98        Cr107   1.970       .  S
O98         C106   1.258       .  A
O99        Cr107   2.018       .  S
O99         C100   1.268       .  A
C100        C609   1.492       .  S
C100        O101   1.260       .  A
O101       Cr108   1.967       .  S
O102       Cr108   2.014       .  S
O102        C103   1.266       .  A
C103        C769   1.469       .  S
C103        O104   1.259       .  A
O104       Cr109   1.971       .  S
O105       Cr109   2.017       .  S
O105        C106   1.268       .  A
C106       C1217   1.489       .  S
Cr107       O110   1.763       .  S
Cr108       O110   1.765       .  S
Cr109       O110   1.763       .  S
C111        C112   1.402       .  A
C111        C116   1.403       .  A
C111        C618   1.476       .  S
C112        C113   1.399       .  A
C112        H117   1.084       .  S
C113        C114   1.403   1_455  A
C113        C586   1.478       .  S
C114        C115   1.404   1_655  A
C114        H118   1.084       .  S
C115        C116   1.404       .  A
C115        C545   1.483   1_455  S
C116        H119   1.083       .  S
C120        C121   1.408       .  A
C120        C125   1.410       .  A
C120        C513   1.494       .  S
C121        C122   1.405       .  A
C121        H126   1.084       .  S
C122        C123   1.401       .  A
C122        C481   1.487       .  S
C123        C124   1.402       .  A
C123        H127   1.084       .  S
C124        C125   1.404       .  A
C124       C1034   1.483       .  S
C125        H128   1.084       .  S
C129        C130   1.407       .  A
C129        C134   1.402       .  A
C129        C970   1.479       .  S
C130        C131   1.403       .  A
C130        H135   1.084       .  S
C131        C132   1.403   1_565  A
C131        C650   1.480       .  S
C132        C133   1.399   1_545  A
C132        H136   1.084       .  S
C133        C134   1.401       .  A
C133        C458   1.476   1_565  S
C134        H137   1.084       .  S
C138        C449   1.471       .  S
C138        N139   1.357       .  A
C138        N143   1.356       .  A
N139        C140   1.358       .  A
C140        C490   1.482       .  S
C140        N141   1.360       .  A
N141        C142   1.360       .  A
C142        C554   1.481       .  S
C142        N143   1.357       .  A
O144       Cr162   2.032       .  S
O144        C152   1.272       .  A
O145       Cr162   1.975       .  S
O145        C146   1.261       .  A
C146       C1162   1.498       .  S
C146        O147   1.268       .  A
O147       Cr163   2.017       .  S
O148       Cr163   1.970       .  S
O148        C149   1.259       .  A
C149        C417   1.490       .  S
C149        O150   1.266       .  A
O150       Cr164   2.018       .  S
O151       Cr164   1.961       .  S
O151        C152   1.256       .  A
C152        C577   1.497       .  S
O153       Cr162   1.974       .  S
O153        C161   1.259       .  A
O154       Cr162   2.028       .  S
O154        C155   1.270       .  A
C155        C522   1.480       .  S
C155        O156   1.259       .  A
O156       Cr163   1.972       .  S
O157       Cr163   2.020       .  S
O157        C158   1.267       .  A
C158       C1313   1.468       .  S
C158        O159   1.258       .  A
O159       Cr164   1.968       .  S
O160       Cr164   2.019       .  S
O160        C161   1.266       .  A
C161        C394   1.474       .  S
Cr162       O165   1.766       .  S
Cr163       O165   1.764       .  S
Cr164       O165   1.765       .  S
C166        C167   1.411       .  A
C166        C171   1.408       .  A
C166        C385   1.491       .  S
C167        C168   1.406       .  A
C167        H172   1.084       .  S
C168        C169   1.401       .  A
C168        C353   1.484       .  S
C169        C170   1.399       .  A
C169        H173   1.084   1_545  S
C170        C171   1.402       .  A
C170        C330   1.481       .  S
C171        H174   1.084       .  S
C175        C176   1.407       .  A
C175        C180   1.403       .  A
C175        C289   1.482       .  S
C176        C177   1.404       .  A
C176        H181   1.084       .  S
C177        C178   1.402       .  A
C177        C993   1.480       .  S
C178        C179   1.402       .  A
C178        H182   1.084       .  S
C179        C180   1.402       .  A
C179        C257   1.481       .  S
C180        H183   1.084       .  S
C184        C185   1.405       .  A
C184        C189   1.404       .  A
C184        C929   1.480       .  S
C185        C186   1.400       .  A
C185        H190   1.083       .  S
C186        C187   1.401       .  A
C186        C426   1.475       .  S
C187        C188   1.401       .  A
C187        H191   1.084       .  S
C188        C189   1.402       .  A
C188        C225   1.479       .  S
C189        H192   1.084       .  S
C193        C234   1.476       .  S
C193        N194   1.357       .  A
C193        N198   1.356       .  A
N194        C195   1.358       .  A
C195        C266   1.479       .  S
C195        N196   1.360       .  A
N196        C197   1.359       .  A
C197        C321   1.475       .  S
C197        N198   1.357       .  A
O199       Cr217   2.018       .  S
O199        C207   1.267       .  A
O200       Cr217   1.962       .  S
O200        C201   1.255       .  A
C201       C1249   1.496       .  S
C201        O202   1.271       .  A
O202       Cr218   2.029       .  S
O203       Cr218   1.968       .  S
O203        C204   1.259       .  A
C204        C714   1.481       .  S
C204        O205   1.270       .  A
O205       Cr219   2.027       .  S
O206       Cr219   1.976       .  S
O206        C207   1.261       .  A
C207        C362   1.499       .  S
O208       Cr217   1.956       .  S
O208        C216   1.256       .  A
O209       Cr217   2.022       .  S
O209        C210   1.268       .  A
C210        C298   1.489       .  S
C210        O211   1.258       .  A
O211       Cr218   1.967       .  S
O212       Cr218   2.023       .  S
O212        C213   1.268       .  A
C213       C1130   1.483       .  S
C213        O214   1.257       .  A
O214       Cr219   1.965       .  S
O215       Cr219   2.029       .  S
O215        C216   1.270       .  A
C216        C833   1.474       .  S
Cr217       O220   1.763       .  S
Cr218       O220   1.767       .  S
Cr219       O220   1.769       .  S
C221        C222   1.402       .  A
C221        C226   1.402   1_554  A
C221        H231   1.084       .  S
C222        C223   1.413   1_554  A
C222        C227   1.482       .  S
C223        C224   1.403       .  A
C223        C228   1.507       .  S
C224        C225   1.403       .  A
C224        H229   1.084       .  S
C225        C226   1.415       .  A
C226        C230   1.508       .  S
C227        C232   1.412       .  A
C227        C236   1.402       .  A
C228        H244   1.109       .  S
C228        H245   1.110       .  S
C228        H246   1.111       .  S
C230        H241   1.111   1_556  S
C230        H242   1.108   1_556  S
C230        H243   1.110       .  S
C232        C233   1.403       .  A
C232        C237   1.507       .  S
C233        C234   1.403       .  A
C233        H238   1.084       .  S
C234        C235   1.415       .  A
C235        C236   1.403       .  A
C235        C239   1.507       .  S
C236        H240   1.084       .  S
C237        H247   1.111       .  S
C237        H248   1.109       .  S
C237        H249   1.110       .  S
C239        H250   1.111       .  S
C239        H251   1.110       .  S
C239        H252   1.109       .  S
C253        C254   1.400       .  A
C253        C258   1.402       .  A
C253        H263   1.085       .  S
C254        C255   1.410       .  A
C254        C259   1.478       .  S
C255        C256   1.402       .  A
C255        C260   1.507       .  S
C256        C257   1.404       .  A
C256        H261   1.084       .  S
C257        C258   1.417       .  A
C258        C262   1.508       .  S
C259        C264   1.410       .  A
C259        C268   1.400       .  A
C260        H276   1.110       .  S
C260        H277   1.109       .  S
C260        H278   1.111       .  S
C262        H273   1.110       .  S
C262        H274   1.111       .  S
C262        H275   1.107       .  S
C264        C265   1.403       .  A
C264        C269   1.507       .  S
C265        C266   1.405       .  A
C265        H270   1.084       .  S
C266        C267   1.417       .  A
C267        C268   1.404       .  A
C267        C271   1.508       .  S
C268        H272   1.084       .  S
C269        H279   1.111       .  S
C269        H280   1.110       .  S
C269        H281   1.109       .  S
C271        H282   1.109       .  S
C271        H283   1.110       .  S
C271        H284   1.111       .  S
C285        C286   1.401       .  A
C285        C290   1.403       .  A
C285        H295   1.085       .  S
C286        C287   1.409       .  A
C286        C291   1.480       .  S
C287        C288   1.403       .  A
C287        C292   1.506       .  S
C288        C289   1.405       .  A
C288        H293   1.084       .  S
C289        C290   1.417       .  A
C290        C294   1.508       .  S
C291        C296   1.408       .  A
C291        C300   1.401       .  A
C292        H308   1.110       .  S
C292        H309   1.110       .  S
C292        H310   1.111       .  S
C294        H305   1.110       .  S
C294        H306   1.111       .  S
C294        H307   1.107       .  S
C296        C297   1.400       .  A
C296        C301   1.508       .  S
C297        C298   1.408       .  A
C297        H302   1.084       .  S
C298        C299   1.420       .  A
C299        C300   1.408       .  A
C299        C303   1.507       .  S
C300        H304   1.084       .  S
C301        H311   1.111       .  S
C301        H312   1.110       .  S
C301        H313   1.110       .  S
C303        H314   1.109       .  S
C303        H315   1.111       .  S
C303        H316   1.111       .  S
C317        C318   1.400       .  A
C317        C322   1.402       .  A
C317        H327   1.085       .  S
C318        C319   1.411       .  A
C318        C323   1.480       .  S
C319        C320   1.404       .  A
C319        C324   1.506       .  S
C320        C321   1.404       .  A
C320        H325   1.084       .  S
C321        C322   1.417       .  A
C322        C326   1.508       .  S
C323        C328   1.410       .  A
C323        C332   1.402       .  A
C324        H340   1.110       .  S
C324        H341   1.110       .  S
C324        H342   1.111       .  S
C326        H337   1.110       .  S
C326        H338   1.111       .  S
C326        H339   1.107       .  S
C328        C329   1.401       .  A
C328        C333   1.507       .  S
C329        C330   1.404   1_565  A
C329        H334   1.084       .  S
C330        C331   1.417       .  A
C331        C332   1.405   1_545  A
C331        C335   1.507       .  S
C332        H336   1.084       .  S
C333        H343   1.111       .  S
C333        H344   1.110       .  S
C333        H345   1.110       .  S
C335        H346   1.110       .  S
C335        H347   1.107       .  S
C335        H348   1.110       .  S
C349        C350   1.401       .  A
C349        C354   1.401       .  A
C349        H359   1.085       .  S
C350        C351   1.411   1_565  A
C350        C355   1.484   1_655  S
C351        C352   1.408       .  A
C351        C356   1.505       .  S
C352        C353   1.405       .  A
C352        H357   1.084       .  S
C353        C354   1.417   1_545  A
C354        C358   1.508       .  S
C355        C360   1.408   1_455  A
C355        C364   1.399       .  A
C356        H372   1.110   1_655  S
C356        H373   1.110       .  S
C356        H374   1.111       .  S
C358        H369   1.110       .  S
C358        H370   1.110       .  S
C358        H371   1.108       .  S
C360        C361   1.404   1_655  A
C360        C365   1.507       .  S
C361        C362   1.411       .  A
C361        H366   1.083       .  S
C362        C363   1.425       .  A
C363        C364   1.408       .  A
C363        C367   1.508       .  S
C364        H368   1.084   1_565  S
C365        H375   1.111       .  S
C365        H376   1.110       .  S
C365        H377   1.110       .  S
C367        H378   1.110       .  S
C367        H379   1.111       .  S
C367        H380   1.111   1_565  S
C381        C382   1.402       .  A
C381        C386   1.405       .  A
C381        H391   1.084       .  S
C382        C383   1.414       .  A
C382        C387   1.489       .  S
C383        C384   1.404       .  A
C383        C388   1.508       .  S
C384        C385   1.405       .  A
C384        H389   1.084       .  S
C385        C386   1.420       .  A
C386        C390   1.508       .  S
C387        C392   1.415       .  A
C387        C396   1.404       .  A
C388        H404   1.109       .  S
C388        H405   1.110       .  S
C388        H406   1.111       .  S
C390        H401   1.111       .  S
C390        H402   1.110       .  S
C390        H403   1.107       .  S
C392        C393   1.406       .  A
C392        C397   1.507       .  S
C393        C394   1.403       .  A
C393        H398   1.085       .  S
C394        C395   1.413       .  A
C395        C396   1.403       .  A
C395        C399   1.508       .  S
C396        H400   1.084       .  S
C397        H407   1.111       .  S
C397        H408   1.109       .  S
C397        H409   1.110       .  S
C399        H410   1.111       .  S
C399        H411   1.109       .  S
C399        H412   1.110       .  S
C413        C414   1.399       .  A
C413        C418   1.407       .  A
C413        H423   1.084       .  S
C414        C415   1.408   1_556  A
C414        C419   1.479       .  S
C415        C416   1.399       .  A
C415        C420   1.508       .  S
C416        C417   1.408       .  A
C416        H421   1.084       .  S
C417        C418   1.422   1_554  A
C418        C422   1.506       .  S
C419        C424   1.410       .  A
C419        C428   1.400       .  A
C420        H436   1.110       .  S
C420        H437   1.110       .  S
C420        H438   1.111       .  S
C422        H433   1.111       .  S
C422        H434   1.108       .  S
C422        H435   1.107       .  S
C424        C425   1.405       .  A
C424        C429   1.505       .  S
C425        C426   1.404       .  A
C425        H430   1.084       .  S
C426        C427   1.414       .  A
C427        C428   1.399       .  A
C427        C431   1.508       .  S
C428        H432   1.085       .  S
C429        H439   1.111       .  S
C429        H440   1.110       .  S
C429        H441   1.110       .  S
C431        H442   1.110       .  S
C431        H443   1.108       .  S
C431        H444   1.110       .  S
C445        C446   1.402       .  A
C445        C450   1.404       .  A
C445        H455   1.084       .  S
C446        C447   1.411       .  A
C446        C451   1.479       .  S
C447        C448   1.402       .  A
C447        C452   1.507       .  S
C448        C449   1.401       .  A
C448        H453   1.084       .  S
C449        C450   1.412       .  A
C450        C454   1.507       .  S
C451        C456   1.411       .  A
C451        C460   1.401       .  A
C452        H468   1.110       .  S
C452        H469   1.110       .  S
C452        H470   1.111       .  S
C454        H465   1.111       .  S
C454        H466   1.111       .  S
C454        H467   1.110       .  S
C456        C457   1.403       .  A
C456        C461   1.506       .  S
C457        C458   1.403       .  A
C457        H462   1.084       .  S
C458        C459   1.415       .  A
C459        C460   1.401       .  A
C459        C463   1.508       .  S
C460        H464   1.084       .  S
C461        H471   1.111       .  S
C461        H472   1.110       .  S
C461        H473   1.110       .  S
C463        H474   1.110       .  S
C463        H475   1.107   1_545  S
C463        H476   1.110       .  S
C477        C478   1.402       .  A
C477        C482   1.405       .  A
C477        H487   1.084       .  S
C478        C479   1.411       .  A
C478        C483   1.484       .  S
C479        C480   1.402       .  A
C479        C484   1.507       .  S
C480        C481   1.406       .  A
C480        H485   1.084       .  S
C481        C482   1.419       .  A
C482        C486   1.508       .  S
C483        C488   1.411       .  A
C483        C492   1.401       .  A
C484        H500   1.109       .  S
C484        H501   1.111       .  S
C484        H502   1.111       .  S
C486        H497   1.111       .  S
C486        H498   1.110       .  S
C486        H499   1.107       .  S
C488        C489   1.404       .  A
C488        C493   1.507       .  S
C489        C490   1.406       .  A
C489        H494   1.084       .  S
C490        C491   1.418       .  A
C491        C492   1.403       .  A
C491        C495   1.508       .  S
C492        H496   1.085       .  S
C493        H503   1.111       .  S
C493        H504   1.110       .  S
C493        H505   1.110       .  S
C495        H506   1.111       .  S
C495        H507   1.106       .  S
C495        H508   1.110       .  S
C509        C510   1.402       .  A
C509        C514   1.404       .  A
C509        H519   1.085       .  S
C510        C511   1.412       .  A
C510        C515   1.491       .  S
C511        C512   1.407       .  A
C511        C516   1.507       .  S
C512        C513   1.408       .  A
C512        H517   1.084       .  S
C513        C514   1.420       .  A
C514        C518   1.509       .  S
C515        C520   1.414       .  A
C515        C524   1.402       .  A
C516        H532   1.109       .  S
C516        H533   1.110       .  S
C516        H534   1.111       .  S
C518        H529   1.111       .  S
C518        H530   1.110       .  S
C518        H531   1.106       .  S
C520        C521   1.407       .  A
C520        C525   1.507       .  S
C521        C522   1.404       .  A
C521        H526   1.085       .  S
C522        C523   1.418       .  A
C523        C524   1.405       .  A
C523        C527   1.508       .  S
C524        H528   1.085       .  S
C525        H535   1.111       .  S
C525        H536   1.109       .  S
C525        H537   1.110       .  S
C527        H538   1.110       .  S
C527        H539   1.104       .  S
C527        H540   1.110       .  S
C541        C542   1.401       .  A
C541        C546   1.405       .  A
C541        H551   1.084       .  S
C542        C543   1.411       .  A
C542        C547   1.481       .  S
C543        C544   1.404       .  A
C543        C548   1.507       .  S
C544        C545   1.404       .  A
C544        H549   1.084       .  S
C545        C546   1.416       .  A
C546        C550   1.508       .  S
C547        C552   1.410       .  A
C547        C556   1.400       .  A
C548        H564   1.110       .  S
C548        H565   1.109       .  S
C548        H566   1.111       .  S
C550        H561   1.108   1_655  S
C550        H562   1.111       .  S
C550        H563   1.111       .  S
C552        C553   1.405       .  A
C552        C557   1.506       .  S
C553        C554   1.405       .  A
C553        H558   1.084       .  S
C554        C555   1.417       .  A
C555        C556   1.403       .  A
C555        C559   1.508       .  S
C556        H560   1.084       .  S
C557        H567   1.111       .  S
C557        H568   1.110       .  S
C557        H569   1.109       .  S
C559        H570   1.109       .  S
C559        H571   1.110       .  S
C559        H572   1.111       .  S
C573        C574   1.395       .  A
C573        C578   1.401       .  A
C573        H583   1.085       .  S
C574        C575   1.409       .  A
C574        C579   1.480       .  S
C575        C576   1.407   1_556  A
C575        C580   1.506   1_655  S
C576        C577   1.411       .  A
C576        H581   1.083       .  S
C577        C578   1.426   1_554  A
C578        C582   1.508       .  S
C579        C584   1.413       .  A
C579        C588   1.402   1_655  A
C580        H596   1.110       .  S
C580        H597   1.108   1_455  S
C580        H598   1.111   1_556  S
C582        H593   1.110       .  S
C582        H594   1.111       .  S
C582        H595   1.110       .  S
C584        C585   1.402       .  A
C584        C589   1.508       .  S
C585        C586   1.401   1_655  A
C585        H590   1.084       .  S
C586        C587   1.413       .  A
C587        C588   1.405       .  A
C587        C591   1.507       .  S
C588        H592   1.084       .  S
C589        H599   1.111       .  S
C589        H600   1.110       .  S
C589        H601   1.108       .  S
C591        H602   1.111       .  S
C591        H603   1.111       .  S
C591        H604   1.109       .  S
C605        C606   1.398       .  A
C605        C610   1.405       .  A
C605        H615   1.084       .  S
C606        C607   1.408       .  A
C606        C611   1.477       .  S
C607        C608   1.401       .  A
C607        C612   1.508       .  S
C608        C609   1.410       .  A
C608        H613   1.084       .  S
C609        C610   1.422       .  A
C610        C614   1.506       .  S
C611        C616   1.411       .  A
C611        C620   1.400       .  A
C612        H628   1.110       .  S
C612        H629   1.108       .  S
C612        H630   1.111       .  S
C614        H625   1.111       .  S
C614        H626   1.110       .  S
C614        H627   1.106       .  S
C616        C617   1.403       .  A
C616        C621   1.507       .  S
C617        C618   1.403       .  A
C617        H622   1.084       .  S
C618        C619   1.416       .  A
C619        C620   1.401       .  A
C619        C623   1.508       .  S
C620        H624   1.084       .  S
C621        H631   1.111       .  S
C621        H632   1.110       .  S
C621        H633   1.109       .  S
C623        H634   1.111       .  S
C623        H635   1.108       .  S
C623        H636   1.110       .  S
C637        C638   1.400       .  A
C637        C642   1.409       .  A
C637        H647   1.084   1_545  S
C638        C639   1.408       .  A
C638        C643   1.480       .  S
C639        C640   1.399       .  A
C639        C644   1.509       .  S
C640        C641   1.409       .  A
C640        H645   1.083       .  S
C641        C642   1.424       .  A
C642        C646   1.508       .  S
C643        C648   1.410   1_545  A
C643        C652   1.400       .  A
C644        H660   1.110       .  S
C644        H661   1.110       .  S
C644        H662   1.111       .  S
C646        H657   1.111   1_545  S
C646        H658   1.110       .  S
C646        H659   1.111       .  S
C648        C649   1.406       .  A
C648        C653   1.505       .  S
C649        C650   1.405       .  A
C649        H654   1.084       .  S
C650        C651   1.416   1_565  A
C651        C652   1.400       .  A
C651        C655   1.508       .  S
C652        H656   1.085       .  S
C653        H663   1.111       .  S
C653        H664   1.110       .  S
C653        H665   1.110       .  S
C655        H666   1.110       .  S
C655        H667   1.108       .  S
C655        H668   1.110       .  S
C669        C670   1.399       .  A
C669        C674   1.400       .  A
C669        H679   1.085       .  S
C670        C671   1.411       .  A
C670        C675   1.478       .  S
C671        C672   1.404   1_455  A
C671        C676   1.506       .  S
C672        C673   1.404       .  A
C672        H677   1.084       .  S
C673        C674   1.417   1_655  A
C674        C678   1.509       .  S
C675        C680   1.409       .  A
C675        C684   1.400       .  A
C676        H692   1.110       .  S
C676        H693   1.110       .  S
C676        H694   1.111   1_455  S
C678        H689   1.111       .  S
C678        H690   1.110       .  S
C678        H691   1.107       .  S
C680        C681   1.403       .  A
C680        C685   1.506       .  S
C681        C682   1.405       .  A
C681        H686   1.084       .  S
C682        C683   1.416       .  A
C683        C684   1.402       .  A
C683        C687   1.506       .  S
C684        H688   1.085       .  S
C685        H695   1.111       .  S
C685        H696   1.110       .  S
C685        H697   1.110       .  S
C687        H698   1.111       .  S
C687        H699   1.106       .  S
C687        H700   1.110       .  S
C701        C702   1.401       .  A
C701        C706   1.404       .  A
C701        H711   1.084       .  S
C702        C703   1.412       .  A
C702        C707   1.482   1_655  S
C703        C704   1.404       .  A
C703        C708   1.507       .  S
C704        C705   1.403       .  A
C704        H709   1.084       .  S
C705        C706   1.415       .  A
C706        C710   1.507       .  S
C707        C712   1.411   1_455  A
C707        C716   1.397       .  A
C708        H724   1.110   1_655  S
C708        H725   1.109       .  S
C708        H726   1.111       .  S
C710        H721   1.110       .  S
C710        H722   1.110       .  S
C710        H723   1.109       .  S
C712        C713   1.410   1_655  A
C712        C717   1.505       .  S
C713        C714   1.407       .  A
C713        H718   1.084       .  S
C714        C715   1.421       .  A
C715        C716   1.399       .  A
C715        C719   1.511       .  S
C716        H720   1.085       .  S
C717        H727   1.111       .  S
C717        H728   1.110       .  S
C717        H729   1.110       .  S
C719        H730   1.110       .  S
C719        H731   1.104       .  S
C719        H732   1.111       .  S
C733        C734   1.400       .  A
C733        C738   1.401       .  A
C733        H743   1.085       .  S
C734        C735   1.410       .  A
C734        C739   1.479       .  S
C735        C736   1.404       .  A
C735        C740   1.506       .  S
C736        C737   1.405       .  A
C736        H741   1.084       .  S
C737        C738   1.417       .  A
C738        C742   1.508       .  S
C739        C744   1.410       .  A
C739        C748   1.400       .  A
C740        H756   1.110       .  S
C740        H757   1.110       .  S
C740        H758   1.111       .  S
C742        H753   1.110       .  S
C742        H754   1.111       .  S
C742        H755   1.108       .  S
C744        C745   1.403       .  A
C744        C749   1.507       .  S
C745        C746   1.404       .  A
C745        H750   1.084       .  S
C746        C747   1.418       .  A
C747        C748   1.404       .  A
C747        C751   1.508       .  S
C748        H752   1.085       .  S
C749        H759   1.111       .  S
C749        H760   1.110       .  S
C749        H761   1.110       .  S
C751        H762   1.110       .  S
C751        H763   1.106       .  S
C751        H764   1.111       .  S
C765        C766   1.401       .  A
C765        C770   1.402       .  A
C765        H775   1.085       .  S
C766        C767   1.412       .  A
C766        C771   1.479       .  S
C767        C768   1.401       .  A
C767        C772   1.507       .  S
C768        C769   1.401       .  A
C768        H773   1.085       .  S
C769        C770   1.416       .  A
C770        C774   1.508       .  S
C771        C776   1.410       .  A
C771        C780   1.400       .  A
C772        H788   1.109       .  S
C772        H789   1.110       .  S
C772        H790   1.111       .  S
C774        H785   1.110       .  S
C774        H786   1.110       .  S
C774        H787   1.104       .  S
C776        C777   1.404       .  A
C776        C781   1.506       .  S
C777        C778   1.406       .  A
C777        H782   1.084       .  S
C778        C779   1.418       .  A
C779        C780   1.399       .  A
C779        C783   1.507       .  S
C780        H784   1.085       .  S
C781        H791   1.111       .  S
C781        H792   1.109       .  S
C781        H793   1.110       .  S
C783        H794   1.110       .  S
C783        H795   1.105       .  S
C783        H796   1.111       .  S
C797        C798   1.401       .  A
C797        C802   1.406       .  A
C797        H807   1.084       .  S
C798        C799   1.410       .  A
C798        C803   1.480       .  S
C799        C800   1.402       .  A
C799        C804   1.507       .  S
C800        C801   1.405       .  A
C800        H805   1.084       .  S
C801        C802   1.417       .  A
C802        C806   1.508       .  S
C803        C808   1.409       .  A
C803        C812   1.400       .  A
C804        H820   1.110       .  S
C804        H821   1.109       .  S
C804        H822   1.111       .  S
C806        H817   1.108       .  S
C806        H818   1.111       .  S
C806        H819   1.110       .  S
C808        C809   1.403       .  A
C808        C813   1.506       .  S
C809        C810   1.406       .  A
C809        H814   1.084       .  S
C810        C811   1.418       .  A
C811        C812   1.404       .  A
C811        C815   1.506       .  S
C812        H816   1.084       .  S
C813        H823   1.111       .  S
C813        H824   1.110       .  S
C813        H825   1.109       .  S
C815        H826   1.108       .  S
C815        H827   1.110       .  S
C815        H828   1.111       .  S
C829        C830   1.403       .  A
C829        C834   1.406       .  A
C829        H839   1.084       .  S
C830        C831   1.409       .  A
C830        C835   1.479       .  S
C831        C832   1.399       .  A
C831        C836   1.508       .  S
C832        C833   1.405       .  A
C832        H837   1.085       .  S
C833        C834   1.415       .  A
C834        C838   1.506       .  S
C835        C840   1.412       .  A
C835        C844   1.400       .  A
C836        H852   1.110       .  S
C836        H853   1.110       .  S
C836        H854   1.111       .  S
C838        H849   1.110       .  S
C838        H850   1.110       .  S
C838        H851   1.106       .  S
C840        C841   1.404       .  A
C840        C845   1.507       .  S
C841        C842   1.401       .  A
C841        H846   1.084       .  S
C842        C843   1.414       .  A
C843        C844   1.402       .  A
C843        C847   1.508       .  S
C844        H848   1.084       .  S
C845        H855   1.111       .  S
C845        H856   1.110       .  S
C845        H857   1.110       .  S
C847        H858   1.110       .  S
C847        H859   1.108       .  S
C847        H860   1.110       .  S
C861        C862   1.398       .  A
C861        C866   1.406       .  A
C861        H871   1.084       .  S
C862        C863   1.408       .  A
C862        C867   1.477   1_545  S
C863        C864   1.399       .  A
C863        C868   1.508   1_545  S
C864        C865   1.409       .  A
C864        H869   1.084       .  S
C865        C866   1.424       .  A
C866        C870   1.508       .  S
C867        C872   1.410       .  A
C867        C876   1.400       .  A
C868        H884   1.110       .  S
C868        H885   1.109       .  S
C868        H886   1.111       .  S
C870        H881   1.110       .  S
C870        H882   1.111       .  S
C870        H883   1.110       .  S
C872        C873   1.405       .  A
C872        C877   1.506       .  S
C873        C874   1.404       .  A
C873        H878   1.084       .  S
C874        C875   1.414       .  A
C875        C876   1.399       .  A
C875        C879   1.508       .  S
C876        H880   1.085   1_565  S
C877        H887   1.111       .  S
C877        H888   1.110   1_565  S
C877        H889   1.109       .  S
C879        H890   1.111       .  S
C879        H891   1.108       .  S
C879        H892   1.110       .  S
C893        C894   1.400       .  A
C893        C898   1.402       .  A
C893        H903   1.085       .  S
C894        C895   1.411       .  A
C894        C899   1.481       .  S
C895        C896   1.404       .  A
C895        C900   1.507       .  S
C896        C897   1.405       .  A
C896        H901   1.084       .  S
C897        C898   1.419       .  A
C898        C902   1.508       .  S
C899        C904   1.408       .  A
C899        C908   1.403       .  A
C900        H916   1.110       .  S
C900        H917   1.110       .  S
C900        H918   1.111       .  S
C902        H913   1.111       .  S
C902        H914   1.110       .  S
C902        H915   1.106       .  S
C904        C905   1.397       .  A
C904        C909   1.508       .  S
C905        C906   1.406       .  A
C905        H910   1.085       .  S
C906        C907   1.420       .  A
C907        C908   1.408       .  A
C907        C911   1.509       .  S
C908        H912   1.084       .  S
C909        H919   1.111       .  S
C909        H920   1.109       .  S
C909        H921   1.110       .  S
C911        H922   1.110       .  S
C911        H923   1.104       .  S
C911        H924   1.111       .  S
C925        C926   1.402       .  A
C925        C930   1.403       .  A
C925        H935   1.084       .  S
C926        C927   1.411       .  A
C926        C931   1.480       .  S
C927        C928   1.402       .  A
C927        C932   1.507       .  S
C928        C929   1.404       .  A
C928        H933   1.084       .  S
C929        C930   1.414       .  A
C930        C934   1.508       .  S
C931        C936   1.411       .  A
C931        C940   1.400       .  A
C932        H948   1.109       .  S
C932        H949   1.110       .  S
C932        H950   1.111       .  S
C934        H945   1.111       .  S
C934        H946   1.108       .  S
C934        H947   1.110       .  S
C936        C937   1.405       .  A
C936        C941   1.506       .  S
C937        C938   1.404       .  A
C937        H942   1.084       .  S
C938        C939   1.417       .  A
C939        C940   1.401       .  A
C939        C943   1.510       .  S
C940        H944   1.084       .  S
C941        H951   1.111       .  S
C941        H952   1.109       .  S
C941        H953   1.110       .  S
C943        H954   1.109       .  S
C943        H955   1.111       .  S
C943        H956   1.111       .  S
C957        C958   1.402       .  A
C957        C962   1.407       .  A
C957        H967   1.084       .  S
C958        C959   1.408       .  A
C958        C963   1.477       .  S
C959        C960   1.396       .  A
C959        C964   1.508       .  S
C960        C961   1.406       .  A
C960        H965   1.084       .  S
C961        C962   1.418       .  A
C962        C966   1.507       .  S
C963        C968   1.410       .  A
C963        C972   1.399       .  A
C964        H980   1.110       .  S
C964        H981   1.110       .  S
C964        H982   1.111       .  S
C966        H977   1.110       .  S
C966        H978   1.111       .  S
C966        H979   1.110       .  S
C968        C969   1.403       .  A
C968        C973   1.506       .  S
C969        C970   1.403       .  A
C969        H974   1.084       .  S
C970        C971   1.416       .  A
C971        C972   1.402       .  A
C971        C975   1.507       .  S
C972        H976   1.084       .  S
C973        H983   1.111       .  S
C973        H984   1.110       .  S
C973        H985   1.110       .  S
C975        H986   1.108       .  S
C975        H987   1.110       .  S
C975        H988   1.111       .  S
C989        C990   1.401       .  A
C989        C994   1.401       .  A
C989        H999   1.085       .  S
C990        C991   1.410       .  A
C990        C995   1.481       .  S
C991        C992   1.406       .  A
C991        C996   1.505       .  S
C992        C993   1.405       .  A
C992        H997   1.084       .  S
C993        C994   1.415       .  A
C994        C998   1.508       .  S
C995       C1000   1.408       .  A
C995       C1004   1.401       .  A
C996       H1012   1.110       .  S
C996       H1013   1.110       .  S
C996       H1014   1.111       .  S
C998       H1009   1.110       .  S
C998       H1010   1.110       .  S
C998       H1011   1.108       .  S
C1000      C1001   1.400       .  A
C1000      C1005   1.508       .  S
C1001      C1002   1.406       .  A
C1001      H1006   1.085       .  S
C1002      C1003   1.421       .  A
C1003      C1004   1.407       .  A
C1003      C1007   1.508       .  S
C1004      H1008   1.084       .  S
C1005      H1015   1.111       .  S
C1005      H1016   1.110       .  S
C1005      H1017   1.110       .  S
C1007      H1018   1.111       .  S
C1007      H1019   1.103       .  S
C1007      H1020   1.111       .  S
C1021      C1022   1.401       .  A
C1021      C1026   1.406       .  A
C1021      H1031   1.084       .  S
C1022      C1023   1.411       .  A
C1022      C1027   1.482       .  S
C1023      C1024   1.403       .  A
C1023      C1028   1.507       .  S
C1024      C1025   1.404       .  A
C1024      H1029   1.084       .  S
C1025      C1026   1.419       .  A
C1026      C1030   1.509       .  S
C1027      C1032   1.410       .  A
C1027      C1036   1.401       .  A
C1028      H1044   1.110       .  S
C1028      H1045   1.109       .  S
C1028      H1046   1.111       .  S
C1030      H1041   1.110       .  S
C1030      H1042   1.111       .  S
C1030      H1043   1.105       .  S
C1032      C1033   1.407       .  A
C1032      C1037   1.505       .  S
C1033      C1034   1.406       .  A
C1033      H1038   1.084       .  S
C1034      C1035   1.416       .  A
C1035      C1036   1.401       .  A
C1035      C1039   1.508       .  S
C1036      H1040   1.085       .  S
C1037      H1047   1.111       .  S
C1037      H1048   1.110       .  S
C1037      H1049   1.109       .  S
C1039      H1050   1.111       .  S
C1039      H1051   1.108       .  S
C1039      H1052   1.110       .  S
C1053      C1054   1.398       .  A
C1053      C1058   1.398       .  A
C1053      H1063   1.085       .  S
C1054      C1055   1.410       .  A
C1054      C1059   1.475       .  S
C1055      C1056   1.406       .  A
C1055      C1060   1.505       .  S
C1056      C1057   1.404       .  A
C1056      H1061   1.084       .  S
C1057      C1058   1.416       .  A
C1058      C1062   1.509       .  S
C1059      C1064   1.412       .  A
C1059      C1068   1.399       .  A
C1060      H1076   1.110       .  S
C1060      H1077   1.109       .  S
C1060      H1078   1.111       .  S
C1062      H1073   1.109       .  S
C1062      H1074   1.111       .  S
C1062      H1075   1.110       .  S
C1064      C1065   1.401       .  A
C1064      C1069   1.508       .  S
C1065      C1066   1.402       .  A
C1065      H1070   1.084       .  S
C1066      C1067   1.416       .  A
C1067      C1068   1.402       .  A
C1067      C1071   1.507       .  S
C1068      H1072   1.084       .  S
C1069      H1079   1.111       .  S
C1069      H1080   1.110       .  S
C1069      H1081   1.109       .  S
C1071      H1082   1.111       .  S
C1071      H1083   1.105       .  S
C1071      H1084   1.110       .  S
C1085      C1086   1.401       .  A
C1085      C1090   1.403       .  A
C1085      H1095   1.084       .  S
C1086      C1087   1.410       .  A
C1086      C1091   1.480       .  S
C1087      C1088   1.403       .  A
C1087      C1092   1.506       .  S
C1088      C1089   1.404       .  A
C1088      H1093   1.084       .  S
C1089      C1090   1.416       .  A
C1090      C1094   1.508       .  S
C1091      C1096   1.410       .  A
C1091      C1100   1.401       .  A
C1092      H1108   1.110       .  S
C1092      H1109   1.110       .  S
C1092      H1110   1.111       .  S
C1094      H1105   1.111       .  S
C1094      H1106   1.107       .  S
C1094      H1107   1.110       .  S
C1096      C1097   1.403       .  A
C1096      C1101   1.506       .  S
C1097      C1098   1.403       .  A
C1097      H1102   1.084       .  S
C1098      C1099   1.415       .  A
C1099      C1100   1.404       .  A
C1099      C1103   1.507       .  S
C1100      H1104   1.084       .  S
C1101      H1111   1.111       .  S
C1101      H1112   1.110       .  S
C1101      H1113   1.110       .  S
C1103      H1114   1.110       .  S
C1103      H1115   1.109       .  S
C1103      H1116   1.111       .  S
C1117      C1118   1.402       .  A
C1117      C1122   1.404       .  A
C1117      H1127   1.084       .  S
C1118      C1119   1.411       .  A
C1118      C1123   1.481       .  S
C1119      C1120   1.405       .  A
C1119      C1124   1.506       .  S
C1120      C1121   1.403       .  A
C1120      H1125   1.084       .  S
C1121      C1122   1.415       .  A
C1122      C1126   1.507       .  S
C1123      C1128   1.410       .  A
C1123      C1132   1.399       .  A
C1124      H1140   1.110       .  S
C1124      H1141   1.110       .  S
C1124      H1142   1.111       .  S
C1126      H1137   1.110       .  S
C1126      H1138   1.110       .  S
C1126      H1139   1.108       .  S
C1128      C1129   1.407       .  A
C1128      C1133   1.505       .  S
C1129      C1130   1.406       .  A
C1129      H1134   1.084       .  S
C1130      C1131   1.418       .  A
C1131      C1132   1.402       .  A
C1131      C1135   1.509       .  S
C1132      H1136   1.084       .  S
C1133      H1143   1.111       .  S
C1133      H1144   1.110       .  S
C1133      H1145   1.110       .  S
C1135      H1146   1.109       .  S
C1135      H1147   1.111       .  S
C1135      H1148   1.111       .  S
C1149      C1150   1.400       .  A
C1149      C1154   1.401       .  A
C1149      H1159   1.085   1_455  S
C1150      C1151   1.411       .  A
C1150      C1155   1.483   1_455  S
C1151      C1152   1.407       .  A
C1151      C1156   1.505       .  S
C1152      C1153   1.405       .  A
C1152      H1157   1.084       .  S
C1153      C1154   1.416       .  A
C1154      C1158   1.508       .  S
C1155      C1160   1.408       .  A
C1155      C1164   1.399       .  A
C1156      H1172   1.110   1_455  S
C1156      H1173   1.110       .  S
C1156      H1174   1.111       .  S
C1158      H1169   1.110       .  S
C1158      H1170   1.110       .  S
C1158      H1171   1.108       .  S
C1160      C1161   1.403       .  A
C1160      C1165   1.508   1_655  S
C1161      C1162   1.410       .  A
C1161      H1166   1.083       .  S
C1162      C1163   1.424       .  A
C1163      C1164   1.408       .  A
C1163      C1167   1.508       .  S
C1164      H1168   1.084       .  S
C1165      H1175   1.111       .  S
C1165      H1176   1.110       .  S
C1165      H1177   1.110       .  S
C1167      H1178   1.109       .  S
C1167      H1179   1.110       .  S
C1167      H1180   1.111       .  S
C1181      C1182   1.401       .  A
C1181      C1186   1.403       .  A
C1181      H1191   1.085       .  S
C1182      C1183   1.410       .  A
C1182      C1187   1.479       .  S
C1183      C1184   1.402       .  A
C1183      C1188   1.507       .  S
C1184      C1185   1.403       .  A
C1184      H1189   1.084       .  S
C1185      C1186   1.416       .  A
C1186      C1190   1.508       .  S
C1187      C1192   1.410       .  A
C1187      C1196   1.400       .  A
C1188      H1204   1.110       .  S
C1188      H1205   1.110       .  S
C1188      H1206   1.111       .  S
C1190      H1201   1.110       .  S
C1190      H1202   1.111       .  S
C1190      H1203   1.107       .  S
C1192      C1193   1.404       .  A
C1192      C1197   1.506       .  S
C1193      C1194   1.405       .  A
C1193      H1198   1.084       .  S
C1194      C1195   1.417       .  A
C1195      C1196   1.401       .  A
C1195      C1199   1.507       .  S
C1196      H1200   1.085       .  S
C1197      H1207   1.111       .  S
C1197      H1208   1.110       .  S
C1197      H1209   1.110       .  S
C1199      H1210   1.110       .  S
C1199      H1211   1.106       .  S
C1199      H1212   1.111       .  S
C1213      C1214   1.397       .  A
C1213      C1218   1.402       .  A
C1213      H1223   1.085       .  S
C1214      C1215   1.408       .  A
C1214      C1219   1.478       .  S
C1215      C1216   1.405       .  A
C1215      C1220   1.506       .  S
C1216      C1217   1.409       .  A
C1216      H1221   1.084       .  S
C1217      C1218   1.422       .  A
C1218      C1222   1.506       .  S
C1219      C1224   1.411       .  A
C1219      C1228   1.399       .  A
C1220      H1236   1.110       .  S
C1220      H1237   1.109       .  S
C1220      H1238   1.111       .  S
C1222      H1233   1.110       .  S
C1222      H1234   1.111       .  S
C1222      H1235   1.107       .  S
C1224      C1225   1.404       .  A
C1224      C1229   1.506       .  S
C1225      C1226   1.404       .  A
C1225      H1230   1.084       .  S
C1226      C1227   1.415       .  A
C1227      C1228   1.402       .  A
C1227      C1231   1.506       .  S
C1228      H1232   1.084       .  S
C1229      H1239   1.111       .  S
C1229      H1240   1.110       .  S
C1229      H1241   1.109       .  S
C1231      H1242   1.111       .  S
C1231      H1243   1.107       .  S
C1231      H1244   1.111       .  S
C1245      C1246   1.397       .  A
C1245      C1250   1.402       .  A
C1245      H1255   1.085   1_565  S
C1246      C1247   1.408       .  A
C1246      C1251   1.481   1_565  S
C1247      C1248   1.407       .  A
C1247      C1252   1.506       .  S
C1248      C1249   1.411       .  A
C1248      H1253   1.083       .  S
C1249      C1250   1.426       .  A
C1250      C1254   1.510       .  S
C1251      C1256   1.413       .  A
C1251      C1260   1.402       .  A
C1252      H1268   1.110       .  S
C1252      H1269   1.109       .  S
C1252      H1270   1.111       .  S
C1254      H1265   1.110       .  S
C1254      H1266   1.111   1_565  S
C1254      H1267   1.110       .  S
C1256      C1257   1.403       .  A
C1256      C1261   1.507   1_545  S
C1257      C1258   1.402       .  A
C1257      H1262   1.084       .  S
C1258      C1259   1.414       .  A
C1259      C1260   1.405       .  A
C1259      C1263   1.507       .  S
C1260      H1264   1.084       .  S
C1261      H1271   1.111   1_565  S
C1261      H1272   1.110       .  S
C1261      H1273   1.109       .  S
C1263      H1274   1.111       .  S
C1263      H1275   1.111       .  S
C1263      H1276   1.109       .  S
C1277      C1278   1.402       .  A
C1277      C1282   1.402       .  A
C1277      H1287   1.084       .  S
C1278      C1279   1.410       .  A
C1278      C1283   1.479       .  S
C1279      C1280   1.401       .  A
C1279      C1284   1.507       .  S
C1280      C1281   1.403       .  A
C1280      H1285   1.084       .  S
C1281      C1282   1.415       .  A
C1282      C1286   1.508       .  S
C1283      C1288   1.411       .  A
C1283      C1292   1.402       .  A
C1284      H1300   1.110       .  S
C1284      H1301   1.110       .  S
C1284      H1302   1.111       .  S
C1286      H1297   1.111       .  S
C1286      H1298   1.110       .  S
C1286      H1299   1.107       .  S
C1288      C1289   1.401       .  A
C1288      C1293   1.507       .  S
C1289      C1290   1.403       .  A
C1289      H1294   1.084       .  S
C1290      C1291   1.415       .  A
C1291      C1292   1.403       .  A
C1291      C1295   1.508       .  S
C1292      H1296   1.084       .  S
C1293      H1303   1.111       .  S
C1293      H1304   1.109       .  S
C1293      H1305   1.110       .  S
C1295      H1306   1.111       .  S
C1295      H1307   1.107       .  S
C1295      H1308   1.110       .  S
C1309      C1310   1.402       .  A
C1309      C1314   1.402       .  A
C1309      H1319   1.084       .  S
C1310      C1311   1.414       .  A
C1310      C1315   1.481       .  S
C1311      C1312   1.403       .  A
C1311      C1316   1.507       .  S
C1312      C1313   1.400       .  A
C1312      H1317   1.084       .  S
C1313      C1314   1.412       .  A
C1314      C1318   1.506       .  S
C1315      C1320   1.410       .  A
C1315      C1324   1.401       .  A
C1316      H1332   1.109       .  S
C1316      H1333   1.110       .  S
C1316      H1334   1.111       .  S
C1318      H1329   1.110       .  S
C1318      H1330   1.111       .  S
C1318      H1331   1.109       .  S
C1320      C1321   1.404       .  A
C1320      C1325   1.506       .  S
C1321      C1322   1.406       .  A
C1321      H1326   1.084       .  S
C1322      C1323   1.417       .  A
C1323      C1324   1.400       .  A
C1323      C1327   1.508       .  S
C1324      H1328   1.085       .  S
C1325      H1335   1.111       .  S
C1325      H1336   1.109       .  S
C1325      H1337   1.110       .  S
C1327      H1338   1.110       .  S
C1327      H1339   1.106       .  S
C1327      H1340   1.111       .  S
C1341      C1342   1.398       .  A
C1341      C1346   1.403       .  A
C1341      H1351   1.084       .  S
C1342      C1343   1.406       .  A
C1342      C1347   1.477       .  S
C1343      C1344   1.402       .  A
C1343      C1348   1.506       .  S
C1344      C1345   1.411       .  A
C1344      H1349   1.083       .  S
C1345      C1346   1.424       .  A
C1346      C1350   1.509       .  S
C1347      C1352   1.410       .  A
C1347      C1356   1.399       .  A
C1348      H1364   1.110       .  S
C1348      H1365   1.110       .  S
C1348      H1366   1.111       .  S
C1350      H1361   1.110       .  S
C1350      H1362   1.111       .  S
C1350      H1363   1.110       .  S
C1352      C1353   1.401       .  A
C1352      C1357   1.508       .  S
C1353      C1354   1.404       .  A
C1353      H1358   1.084       .  S
C1354      C1355   1.418       .  A
C1355      C1356   1.405       .  A
C1355      C1359   1.506   1_556  S
C1356      H1360   1.084       .  S
C1357      H1367   1.111       .  S
C1357      H1368   1.110       .  S
C1357      H1369   1.110       .  S
C1359      H1370   1.111   1_554  S
C1359      H1371   1.110       .  S
C1359      H1372   1.108   1_554  S
