geometry optimzed in LAMMPS
_audit_creation_date              2020-11-30 
_audit_creation_method            'lammps2cif' 
_symmetry_space_group_name_H-M    'P1' 
_symmetry_Int_Tables_number       1 
_symmetry_cell_setting            triclinic 
loop_ 
_symmetry_equiv_pos_as_xyz 
  x,y,z 
_cell_length_a                    38.23475808 
_cell_length_b                    38.234270413396246 
_cell_length_c                    39.31266865436598 
_cell_angle_alpha                 89.66740377492772 
_cell_angle_beta                  89.66315388220782 
_cell_angle_gamma                 89.8899608797271 
loop_ 
_atom_site_label 
_atom_site_type_symbol 
_atom_site_fract_x 
_atom_site_fract_y 
_atom_site_fract_z 
_atom_site_charge 
C1          C  0.41084643  0.42555763  0.05718635     0.43400
N2          N  0.42923486  0.46035762  0.01838964     0.02200
C3          C  0.60137856  0.46414731  0.45493623    -0.05600
H4          H  0.58815736  0.47231997  0.08912716     0.07700
C5          C  0.52510032  0.59139631  0.07003576    -0.06000
Co6        Co  0.50125034  0.44028221  0.99622209     0.74200
N7          N  0.55098908  0.46536950  0.04871749    -0.25200
Co8        Co  0.56274466  0.50486242  0.51262723     0.74100
C9          C  0.55394912  0.57997803  0.09172539     0.43500
N10         N  0.44760744  0.56283922  0.02843734     0.01900
N11         N  0.54778717  0.54346880  0.05095070     0.02000
N12         N  0.56181899  0.42151040  0.44507977    -0.46000
H13         H  0.46112870  0.39254963  0.05504027     0.07700
N14         N  0.52911335  0.43989467  0.04137745     0.02200
N15         N  0.56774072  0.54415251  0.47680315     0.02000
C16         C  0.58608827  0.57375157  0.43413015     0.43600
N17         N  0.42506804  0.53780374  0.02145045    -0.24600
C18         C  0.47688954  0.41596367  0.42609736    -0.05500
N19         N  0.40222816  0.45430773  0.03891083    -0.45700
N20         N  0.59428197  0.54748825  0.45549903    -0.45900
C21         C  0.44816713  0.42721049  0.40424629     0.43400
N22         N  0.55122107  0.44253469  0.46946813     0.02200
N23         N  0.44506713  0.53821900  0.44965803    -0.24600
N24         N  0.45467019  0.43742256  0.02254015    -0.25100
N25         N  0.46723541  0.56370135  0.45577358     0.01900
H26         H  0.40811616  0.52941509  0.40961962     0.07800
H27         H  0.53629300  0.60805744  0.43376088     0.07800
N28         N  0.57363849  0.46774997  0.47571963    -0.25200
N29         N  0.52349997  0.56732054  0.04542495    -0.24800
N30         N  0.45088712  0.46104684  0.44743622     0.02200
C31         C  0.55323784  0.42328858  0.08762549     0.43600
C32         C  0.39763111  0.54029499  0.04270846    -0.06000
N33         N  0.54246726  0.56692547  0.47110845    -0.24800
H34         H  0.50947682  0.61495818  0.07117788     0.07800
N35         N  0.53007889  0.41390790  0.06368901    -0.46000
H36         H  0.37546953  0.52280123  0.04346220     0.07800
C37         C  0.44361345  0.57841602  0.40842401     0.43500
C38         C  0.44533316  0.41423412  0.04622320    -0.05500
Co39       Co  0.43551175  0.50134106  0.98368903     0.73800
N40         N  0.43724901  0.58249792  0.05419040    -0.45700
C41         C  0.59318874  0.43345296  0.43460104     0.43700
N42         N  0.43315521  0.45511787  0.41934363    -0.45700
Co43       Co  0.49649032  0.56494222  0.49992640     0.73900
C44         C  0.55179055  0.58714989  0.44451718    -0.06100
C45         C  0.56726456  0.45741334  0.07780558    -0.05600
N46         N  0.47630909  0.43826472  0.45216459    -0.25100
N47         N  0.56671319  0.55018519  0.07818238    -0.45900
H48         H  0.62383545  0.48124536  0.45393284     0.07700
C49         C  0.42874964  0.54511248  0.42025104    -0.06000
Cl50       Cl  0.49760024  0.50380933  0.99897101    -0.49000
C51         C  0.40584761  0.56996163  0.06436151     0.43500
H52         H  0.49394706  0.39348549  0.42390564     0.07700
N53         N  0.46686321  0.58834126  0.43209944    -0.45700
C54         C  0.57663050  0.91850776  0.07734196     0.43400
N55         N  0.56223999  0.95810545  0.04080222     0.02200
C56         C  0.41217104  0.06156720  0.04190969    -0.05600
H57         H  0.38405931  0.93606294  0.02968111     0.07700
C58         C  0.46067675  0.93664251  0.41263648    -0.06000
Co59       Co  0.49765425  0.99712345  0.06180101     0.74200
N60         N  0.43433443  0.96066931  0.03535012    -0.25200
Co61       Co  0.43702702  0.99807699  0.99622768     0.74100
C62         C  0.42707544  0.92092591  0.42201055     0.43500
N63         N  0.54691593  0.96022876  0.44055857     0.01900
N64         N  0.44150369  0.95968606  0.45941701     0.02000
N65         N  0.45225496  0.05872164  0.08370594    -0.46000
H66         H  0.52765374  0.92967027  0.10998204     0.07700
N67         N  0.45749930  0.96024597  0.06015120     0.02200
N68         N  0.44208337  0.03632861  0.45889667     0.02000
C69         C  0.42767505  0.07522677  0.42152776     0.43600
N70         N  0.56964605  0.96058894  0.46573466    -0.24600
C71         C  0.54511332  0.05766436  0.08780343    -0.05500
N72         N  0.58718014  0.93543691  0.04880334    -0.45700
N73         N  0.41732536  0.05905944  0.45060376    -0.45900
C74         C  0.57922077  0.07221219  0.07812023     0.43400
N75         N  0.45938711  0.03607376  0.05926116     0.02200
N76         N  0.56925924  0.03594911  0.46576010    -0.24600
N77         N  0.53631877  0.95820318  0.06317518    -0.25100
N78         N  0.54682664  0.03581370  0.44032200     0.01900
H79         H  0.61834806  0.06238401  0.47342079     0.07800
H80         H  0.47693235  0.06302084  0.38934986     0.07800
N81         N  0.43605092  0.03666146  0.03458701    -0.25200
N82         N  0.46748298  0.96009057  0.43702033    -0.24800
N83         N  0.56337985  0.03417620  0.04102661     0.02200
C84         C  0.41716291  0.92501999  0.07744659     0.43600
C85         C  0.59620548  0.93902225  0.45802562    -0.06000
N86         N  0.46798172  0.03589228  0.43654892    -0.24800
H87         H  0.47614172  0.93283736  0.38982603     0.07800
N88         N  0.44802354  0.93967859  0.08582371    -0.46000
H89         H  0.62009987  0.93657600  0.47243455     0.07800
C90         C  0.58647930  0.07264837  0.42499319     0.43500
C91         C  0.54289061  0.93379706  0.08704796    -0.05500
Co92       Co  0.56538765  0.99654800  0.00278084     0.73800
N93         N  0.55723489  0.93998717  0.41507762    -0.45700
C94         C  0.42316776  0.07642365  0.07457441     0.43700
N95         N  0.58892146  0.05593409  0.04909973    -0.45700
Co96       Co  0.50722888  0.99794927  0.43831276     0.73900
C97         C  0.46139220  0.05963571  0.41214848    -0.06100
C98         C  0.40810428  0.93886625  0.04374373    -0.05600
N99         N  0.53765956  0.03428504  0.06352042    -0.25100
N100        N  0.41662502  0.93697493  0.45110123    -0.45900
H101        H  0.38852526  0.06654362  0.02770732     0.07700
C102        C  0.59484664  0.05887131  0.45865949    -0.06000
Cl103      Cl  0.50131117  0.99715770  0.99939610    -0.49000
C104        C  0.58806774  0.92541088  0.42426788     0.43500
H105        H  0.53000415  0.06145353  0.11080565     0.07700
N106        N  0.55660720  0.05685697  0.41508408    -0.45700
C107        C  0.92358482  0.42102391  0.07695926     0.43400
N108        N  0.96352508  0.43423196  0.04036035     0.02200
C109        C  0.06200251  0.58764245  0.04062469    -0.05600
H110        H  0.93470095  0.60798455  0.02802742     0.07700
C111        C  0.93407808  0.53636330  0.41131860    -0.06000
Co112      Co  0.00326693  0.49831032  0.06138374     0.74200
N113        N  0.96399217  0.56057412  0.03566054    -0.25200
Co114      Co  0.00019755  0.55984665  0.99603954     0.74100
C115        C  0.91897272  0.57012163  0.42094795     0.43500
N116        N  0.96100533  0.44952983  0.43729004     0.01900
N117        N  0.95813830  0.55486054  0.45750084     0.02000
N118        N  0.06394794  0.54678936  0.08220609    -0.46000
H119        H  0.93700632  0.46845708  0.11012324     0.07700
N120        N  0.96524241  0.53759577  0.06075655     0.02200
N121        N  0.03396164  0.55680404  0.45387022     0.02000
C122        C  0.06672679  0.57510513  0.41252577     0.43600
N123        N  0.96305951  0.42635565  0.46213806    -0.24600
C124        C  0.06141670  0.44822108  0.08780630    -0.05500
N125        N  0.93953731  0.41034760  0.04799580    -0.45700
N126        N  0.05344613  0.58343375  0.44345483    -0.45900
C127        C  0.07364149  0.41294958  0.07903629     0.43400
N128        N  0.04152288  0.53788284  0.05801335     0.02200
N129        N  0.03843946  0.42968127  0.46109028    -0.24600
N130        N  0.96489220  0.45947679  0.06315637    -0.25100
N131        N  0.03680656  0.45298723  0.43617197     0.01900
H132        H  0.06976520  0.38329871  0.46840228     0.07800
H133        H  0.05513224  0.52504861  0.38166631     0.07800
N134        N  0.03965045  0.56162056  0.03343465    -0.25200
N135        N  0.95802193  0.52914507  0.43512512    -0.24800
N136        N  0.03962327  0.43258372  0.03967240     0.02200
C137        C  0.92593334  0.57457617  0.07644186     0.43600
C138        C  0.94398050  0.39828833  0.45397089    -0.06000
N139        N  0.03308071  0.53138599  0.43135998    -0.24800
H140        H  0.93023056  0.52157893  0.38827264     0.07800
N141        N  0.94316203  0.54516971  0.08579484    -0.46000
H142        H  0.94429627  0.37426052  0.46843765     0.07800
C143        C  0.07812664  0.41810334  0.42088419     0.43500
C144        C  0.94075376  0.45329276  0.08724182    -0.05500
Co145      Co  0.00163086  0.43150240  0.00182170     0.73800
N146        N  0.94184793  0.43808704  0.41158798    -0.45700
C147        C  0.07847509  0.57774883  0.07291072     0.43700
N148        N  0.05876570  0.40521995  0.04892441    -0.45700
Co149      Co  0.99709328  0.49068699  0.43477419     0.73900
C150        C  0.05328633  0.54017830  0.40467701    -0.06100
C151        C  0.93981576  0.58478892  0.04306364    -0.05600
N152        N  0.04029520  0.45796348  0.06226533    -0.25100
N153        N  0.93559169  0.58008233  0.44961587    -0.45900
H154        H  0.06421623  0.61194516  0.02656956     0.07700
C155        C  0.06394124  0.40663406  0.45381873    -0.06000
Cl156      Cl  0.00123912  0.49565303  0.99891938    -0.49000
C157        C  0.92978931  0.40581436  0.42005955     0.43500
H158        H  0.06427032  0.46228557  0.11139982     0.07700
N159        N  0.05956824  0.44662227  0.41147435    -0.45700
C160        C  0.26125687  0.25250723  0.21583817     0.46400
H161        H  0.26129352  0.25026260  0.18788421    -0.02700
C162        C  0.26024944  0.25790484  0.28143991     0.46400
H163        H  0.25941581  0.26073296  0.30955748    -0.02700
C164        C  0.28893372  0.27802266  0.22944332    -0.16400
C165        C  0.22621192  0.26708249  0.22977725    -0.16100
C166        C  0.26980567  0.21747089  0.23450862    -0.16500
C167        C  0.28870927  0.28019521  0.26421301    -0.16500
C168        C  0.22590035  0.26946821  0.26464256    -0.16000
C169        C  0.26914280  0.22053116  0.26972139    -0.16400
C170        C  0.74180331  0.25942215  0.21484742     0.46400
H171        H  0.74305266  0.26137204  0.18673617    -0.02700
C172        C  0.73994057  0.25550347  0.28058515     0.46400
H173        H  0.73990223  0.25353996  0.30853440    -0.02700
C174        C  0.71435436  0.28367094  0.23105678    -0.16400
C175        C  0.73142351  0.22262930  0.22786399    -0.16100
C176        C  0.77649249  0.26965685  0.23165561    -0.16500
C177        C  0.71357733  0.28186708  0.26601236    -0.16500
C178        C  0.72990039  0.22076093  0.26304170    -0.16000
C179        C  0.77562212  0.26795013  0.26658565    -0.16400
C180        C  0.25443427  0.74184999  0.21924704     0.46400
H181        H  0.25563654  0.74104700  0.19122370    -0.02700
C182        C  0.25508239  0.74372734  0.28487631     0.46400
H183        H  0.25426898  0.74559186  0.31274275    -0.02700
C184        C  0.27902693  0.71467283  0.23522664    -0.16400
C185        C  0.26660332  0.77733639  0.23404925    -0.16100
C186        C  0.21839392  0.73244329  0.23432509    -0.16500
C187        C  0.28136129  0.71690099  0.27027625    -0.16500
C188        C  0.26689577  0.77833084  0.26901631    -0.16000
C189        C  0.21893171  0.73379731  0.26966330    -0.16400
C190        C  0.74272702  0.74084837  0.21864469     0.46400
H191        H  0.73842747  0.73950103  0.19084058    -0.02700
C192        C  0.75241945  0.74266870  0.28350585     0.46400
H193        H  0.75858415  0.74495927  0.31058602    -0.02700
C194        C  0.71874834  0.71549459  0.23859896    -0.16400
C195        C  0.78031603  0.73058375  0.22928986    -0.16100
C196        C  0.73407329  0.77690044  0.23388863    -0.16500
C197        C  0.72488766  0.71511158  0.27345837    -0.16500
C198        C  0.78531623  0.73156309  0.26389969    -0.16000
C199        C  0.73887944  0.77761964  0.26875799    -0.16400
C200        C  0.16398852  0.70224044  0.15675519    -0.13500
C201        C  0.14844472  0.67122535  0.16861153     0.16900
C202        C  0.15368605  0.66192258  0.20293162     0.03200
C203        C  0.17568414  0.68196577  0.22356361    -0.12000
C204        C  0.19160082  0.71330063  0.21226933    -0.03000
C205        C  0.18462380  0.72343306  0.17800107     0.02400
C206        C  0.12954071  0.64747564  0.14440569     0.09300
N207        N  0.13637453  0.63229919  0.21758349     0.65600
H208        H  0.18091067  0.67117127  0.24836531     0.18600
N209        N  0.19729317  0.75561037  0.16409026     0.76100
H210        H  0.16059645  0.71000315  0.13041652     0.10100
C211        C  0.10261467  0.65959947  0.12276162     0.03800
C212        C  0.08698597  0.63680523  0.09927590    -0.04900
C213        C  0.09719278  0.60153220  0.09685127    -0.23300
C214        C  0.12422674  0.58945319  0.11824682     0.13000
C215        C  0.14011031  0.61230686  0.14149037    -0.12500
N216        N  0.08987715  0.69466348  0.12510635     0.64700
H217        H  0.06599614  0.64662761  0.08345996     0.12500
N218        N  0.13742183  0.55463045  0.11520954     0.61300
H219        H  0.16160904  0.60265537  0.15673677     0.08700
O220        O  0.17757040  0.78202568  0.16559795    -0.40100
O221        O  0.22046950  0.75460497  0.14109865    -0.39300
O222        O  0.15392642  0.60541630  0.22517708    -0.39300
O223        O  0.10625905  0.63620298  0.23032654    -0.37000
O224        O  0.16139544  0.54839843  0.09388074    -0.37900
O225        O  0.13081103  0.53245652  0.13824152    -0.34100
O226        O  0.09671186  0.71621285  0.10157124    -0.35500
O227        O  0.06607890  0.70173583  0.14636149    -0.39800
C228        C  0.11331582  0.61915831  0.33685908    -0.13500
C229        C  0.12342190  0.65091505  0.35139885     0.16900
C230        C  0.11306318  0.65835984  0.38492401     0.03200
C231        C  0.09449805  0.63337722  0.40394858    -0.12000
C232        C  0.08540178  0.60076271  0.39008524    -0.03000
C233        C  0.09420140  0.59428706  0.35555903     0.02400
C234        C  0.14784631  0.67402354  0.33237576     0.09300
N235        N  0.12237067  0.69066534  0.40045710     0.65600
H236        H  0.08771348  0.63948493  0.43004266     0.18600
N237        N  0.08382846  0.56307654  0.33865779     0.76100
H238        H  0.12083348  0.61341302  0.31084072     0.10100
C239        C  0.18224526  0.66264295  0.32595091     0.03800
C240        C  0.20475269  0.68334061  0.30644165    -0.04900
C241        C  0.19370782  0.71513815  0.29223021    -0.23300
C242        C  0.15916644  0.72655615  0.29819570     0.13000
C243        C  0.13653693  0.70612848  0.31858320    -0.12500
N244        N  0.19429483  0.62942745  0.33812057     0.64700
H245        H  0.23052196  0.67342651  0.30044876     0.12500
N246        N  0.14655323  0.75813475  0.28305293     0.61300
H247        H  0.10987321  0.71477590  0.32282532     0.08700
O248        O  0.05557217  0.56291873  0.32221893    -0.40100
O249        O  0.10616191  0.53935710  0.33333569    -0.39300
O250        O  0.09961464  0.71437852  0.40366517    -0.39300
O251        O  0.15078992  0.69292825  0.41643072    -0.37000
O252        O  0.12977730  0.75684328  0.25554571    -0.37900
O253        O  0.14684433  0.78613172  0.29986992    -0.34100
O254        O  0.20335161  0.60608382  0.31726215    -0.35500
O255        O  0.19862160  0.62440249  0.36956923    -0.39800
C256        C  0.15580209  0.29736743  0.32820388    -0.13500
C257        C  0.15732240  0.33389801  0.32543763     0.16900
C258        C  0.18079517  0.34920415  0.30192957     0.03200
C259        C  0.20168084  0.32781338  0.28110734    -0.12000
C260        C  0.20046026  0.29117546  0.28422019    -0.03000
C261        C  0.17753894  0.27603976  0.30827374     0.02400
C262        C  0.13667833  0.35557186  0.34951382     0.09300
N263        N  0.18600441  0.38621776  0.30131762     0.65600
H264        H  0.22022185  0.33980833  0.26365658     0.18600
N265        N  0.17687230  0.23908764  0.31355724     0.76100
H266        H  0.13843084  0.28538841  0.34675715     0.10100
C267        C  0.10797562  0.37594738  0.33880281     0.03800
C268        C  0.09025693  0.39713770  0.36227153    -0.04900
C269        C  0.09956233  0.39728173  0.39680402    -0.23300
C270        C  0.12776752  0.37619884  0.40759684     0.13000
C271        C  0.14622863  0.35589804  0.38389561    -0.12500
N272        N  0.09486025  0.37340074  0.30492595     0.64700
H273        H  0.06794898  0.41225928  0.35369316     0.12500
N274        N  0.13846435  0.37553055  0.44233697     0.61300
H275        H  0.16826464  0.34031265  0.39236453     0.08700
O276        O  0.15288141  0.22124876  0.30027855    -0.40100
O277        O  0.19487691  0.22587759  0.33717879    -0.39300
O278        O  0.20514662  0.40035254  0.32335869    -0.39300
O279        O  0.17112173  0.40489882  0.27914533    -0.37000
O280        O  0.13373245  0.34815781  0.45983221    -0.37900
O281        O  0.15907338  0.39871317  0.45296347    -0.34100
O282        O  0.07757114  0.34668774  0.29673432    -0.35500
O283        O  0.09304641  0.40050865  0.28655847    -0.39800
C284        C  0.17959440  0.32264522  0.16183022    -0.13500
C285        C  0.14449189  0.31723048  0.16955964     0.16900
C286        C  0.13578917  0.29424197  0.19648043     0.03200
C287        C  0.16260724  0.27738393  0.21499679    -0.12000
C288        C  0.19830770  0.28336190  0.20755042    -0.03000
C289        C  0.20624557  0.30656918  0.18026271     0.02400
C290        C  0.11887042  0.33706700  0.14856590     0.09300
N291        N  0.10012424  0.28708506  0.20483102     0.65600
H292        H  0.15545297  0.25962097  0.23542368     0.18600
N293        N  0.24087348  0.31707900  0.17189370     0.76100
H294        H  0.18662035  0.34064528  0.14147505     0.10100
C295        C  0.10302867  0.36789230  0.16076224     0.03800
C296        C  0.08802941  0.39187796  0.13788926    -0.04900
C297        C  0.08876536  0.38614994  0.10256134    -0.23300
C298        C  0.10328892  0.35445968  0.09053352     0.13000
C299        C  0.11794571  0.33036309  0.11348464    -0.12500
N300        N  0.10416959  0.37655343  0.19602014     0.64700
H301        H  0.07653653  0.41553027  0.14802863     0.12500
N302        N  0.10598095  0.34749883  0.05494517     0.61300
H303        H  0.13094048  0.30730745  0.10358241     0.08700
O304        O  0.24862295  0.34864312  0.17717281    -0.40100
O305        O  0.25602260  0.30154597  0.14770533    -0.39300
O306        O  0.08531544  0.26110125  0.19155620    -0.39300
O307        O  0.08666307  0.30091754  0.23086674    -0.37000
O308        O  0.13323207  0.35659816  0.03897351    -0.37900
O309        O  0.08523411  0.32605173  0.04153199    -0.34100
O310        O  0.12958595  0.39406671  0.20706019    -0.35500
O311        O  0.07654394  0.37444490  0.21361253    -0.39800
C312        C  0.84506176  0.29471183  0.16527453    -0.13500
C313        C  0.84573671  0.33118163  0.16859109     0.16900
C314        C  0.82530894  0.34715058  0.19409242     0.03200
C315        C  0.80471422  0.32647601  0.21596372    -0.12000
C316        C  0.80293220  0.29002602  0.21180855    -0.03000
C317        C  0.82359189  0.27414782  0.18643260     0.02400
C318        C  0.86683496  0.35259272  0.14456389     0.09300
N319        N  0.82320173  0.38444185  0.19619032     0.65600
H320        H  0.78835306  0.33908741  0.23489564     0.18600
N321        N  0.82307412  0.23713447  0.18194461     0.76100
H322        H  0.86076631  0.28225172  0.14575584     0.10100
C323        C  0.89869142  0.36775762  0.15453967     0.03800
C324        C  0.91641360  0.39044437  0.13231565    -0.04900
C325        C  0.90339764  0.39765449  0.09973531    -0.23300
C326        C  0.87187321  0.38202421  0.08948911     0.13000
C327        C  0.85373502  0.35979511  0.11198654    -0.12500
N328        N  0.91386795  0.35956694  0.18674416     0.64700
H329        H  0.94098579  0.40179556  0.14025481     0.12500
N330        N  0.85710512  0.38991096  0.05705186     0.61300
H331        H  0.82897733  0.34867541  0.10429498     0.08700
O332        O  0.80414059  0.22410538  0.15912133    -0.40100
O333        O  0.84629575  0.21853525  0.19585599    -0.39300
O334        O  0.80758619  0.40162608  0.17333141    -0.39300
O335        O  0.83963026  0.40042669  0.21905423    -0.37000
O336        O  0.85948183  0.36792977  0.03333859    -0.37900
O337        O  0.83660100  0.41562708  0.05401595    -0.34100
O338        O  0.92919894  0.33058828  0.19072343    -0.35500
O339        O  0.91887100  0.38367019  0.20793287    -0.39800
C340        C  0.82336782  0.32204688  0.33387554    -0.13500
C341        C  0.85823905  0.31635910  0.32535720     0.16900
C342        C  0.86638939  0.29328802  0.29867009     0.03200
C343        C  0.83923852  0.27658407  0.28096969    -0.12000
C344        C  0.80375474  0.28324420  0.28872578    -0.03000
C345        C  0.79629228  0.30640816  0.31596856     0.02400
C346        C  0.88440095  0.33592607  0.34534125     0.09300
N347        N  0.90181885  0.28710051  0.28877605     0.65600
H348        H  0.84596268  0.25883159  0.26057257     0.18600
N349        N  0.76182168  0.31744260  0.32456875     0.76100
H350        H  0.81692479  0.34001447  0.35425444     0.10100
C351        C  0.89183763  0.37105554  0.33727857     0.03800
C352        C  0.90683931  0.39302345  0.36174143    -0.04900
C353        C  0.91417440  0.38088447  0.39490403    -0.23300
C354        C  0.90697512  0.34522774  0.40255027     0.13000
C355        C  0.89276390  0.32328023  0.37772257    -0.12500
N356        N  0.88184133  0.38534255  0.30509287     0.64700
H357        H  0.91185826  0.42004863  0.35491583     0.12500
N358        N  0.91119895  0.33112884  0.43594002     0.61300
H359        H  0.88553005  0.29677958  0.38472105     0.08700
O360        O  0.74689969  0.30260406  0.34943931    -0.40100
O361        O  0.75399140  0.34886742  0.31821722    -0.39300
O362        O  0.91807647  0.26146837  0.30146063    -0.39300
O363        O  0.91368236  0.30167275  0.26225805    -0.37000
O364        O  0.93493308  0.30882621  0.44131787    -0.37900
O365        O  0.88668709  0.33444427  0.45732752    -0.34100
O366        O  0.85362546  0.40229114  0.30248643    -0.35500
O367        O  0.89858169  0.37699713  0.27861793    -0.39800
C368        C  0.85816389  0.64057896  0.38523327    -0.13500
C369        C  0.86817194  0.64099847  0.35080850     0.16900
C370        C  0.89516121  0.61862411  0.33986122     0.03200
C371        C  0.91111959  0.59569214  0.36302436    -0.12000
C372        C  0.90098907  0.59483394  0.39746449    -0.03000
C373        C  0.87452950  0.61796887  0.40863023     0.02400
C374        C  0.84898343  0.66350409  0.32626238     0.09300
N375        N  0.90664596  0.61895858  0.30522567     0.65600
H376        H  0.93187096  0.57872195  0.35400377     0.18600
N377        N  0.86292808  0.61775419  0.44323932     0.76100
H378        H  0.83721722  0.65754758  0.39385968     0.10100
C379        C  0.81849048  0.65126562  0.31055848     0.03800
C380        C  0.79982497  0.67315242  0.28860477    -0.04900
C381        C  0.81025382  0.70779437  0.28219082    -0.23300
C382        C  0.84091120  0.72010448  0.29790347     0.13000
C383        C  0.86034468  0.69774071  0.31931475    -0.12500
N384        N  0.80512251  0.61718841  0.31802708     0.64700
H385        H  0.77611072  0.66322114  0.27767074     0.12500
N386        N  0.85160458  0.75564792  0.29396875     0.61300
H387        H  0.88361631  0.70755004  0.33159928     0.08700
O388        O  0.83724965  0.59890188  0.45177668    -0.40100
O389        O  0.87309984  0.64145497  0.46304982    -0.39300
O390        O  0.93381588  0.63575626  0.29701923    -0.39300
O391        O  0.89334024  0.59799234  0.28431240    -0.37000
O392        O  0.83835140  0.77857350  0.31307784    -0.37900
O393        O  0.87964274  0.76241018  0.27821097    -0.34100
O394        O  0.78131287  0.61373566  0.34015236    -0.35500
O395        O  0.81155718  0.59233867  0.29795551    -0.39800
C396        C  0.84665273  0.69798779  0.16369067    -0.13500
C397        C  0.83832270  0.66226992  0.16221774     0.16900
C398        C  0.81156668  0.64924172  0.18361530     0.03200
C399        C  0.79347759  0.67192640  0.20527233    -0.12000
C400        C  0.80168116  0.70762654  0.20672972    -0.03000
C401        C  0.82866667  0.72067400  0.18566529     0.02400
C402        C  0.85905401  0.63881877  0.13965197     0.09300
N403        N  0.80193479  0.61315505  0.18325167     0.65600
H404        H  0.77239082  0.66150582  0.22068218     0.18600
N405        N  0.83856285  0.75665078  0.18643423     0.76100
H406        H  0.86793856  0.70821969  0.14832863     0.10100
C407        C  0.86302032  0.64575910  0.10455259     0.03800
C408        C  0.88423178  0.62411351  0.08450417    -0.04900
C409        C  0.90221954  0.59546935  0.09864538    -0.23300
C410        C  0.89801120  0.58840311  0.13380926     0.13000
C411        C  0.87669771  0.61005766  0.15382415    -0.12500
N412        N  0.84554677  0.67460223  0.08874300     0.64700
H413        H  0.88655741  0.63001961  0.05763155     0.12500
N414        N  0.91620122  0.56029232  0.15004476     0.61300
H415        H  0.87480596  0.60493585  0.18090125     0.08700
O416        O  0.83731795  0.77442686  0.15933292    -0.40100
O417        O  0.85738123  0.76726188  0.21047661    -0.39300
O418        O  0.81085982  0.59357149  0.20766509    -0.39300
O419        O  0.77834393  0.60312604  0.16326255    -0.37000
O420        O  0.94542203  0.56602875  0.16366566    -0.37900
O421        O  0.90007709  0.53236994  0.15701857    -0.34100
O422        O  0.86277216  0.70162036  0.08088714    -0.35500
O423        O  0.81581585  0.66998917  0.07578268    -0.39800
C424        C  0.63913423  0.10020442  0.34697037    -0.13500
C425        C  0.65693346  0.12974081  0.35883211     0.16900
C426        C  0.65190133  0.14000373  0.39302666     0.03200
C427        C  0.62949115  0.12057712  0.41442118    -0.12000
C428        C  0.61081607  0.09180224  0.40204588    -0.03000
C429        C  0.61616491  0.08144261  0.36804683     0.02400
C430        C  0.67702725  0.15120829  0.33372577     0.09300
N431        N  0.66699272  0.17147716  0.40570021     0.65600
H432        H  0.62548937  0.12894510  0.44045304     0.18600
N433        N  0.59971031  0.05093307  0.35491803     0.76100
H434        H  0.64273924  0.09191933  0.32085574     0.10100
C435        C  0.71318862  0.15781793  0.33631552     0.03800
C436        C  0.72990893  0.17930095  0.31202133    -0.04900
C437        C  0.71168050  0.19341054  0.28411263    -0.23300
C438        C  0.67560164  0.18521204  0.28091676     0.13000
C439        C  0.65899509  0.16460216  0.30568881    -0.12500
N440        N  0.73364958  0.14148266  0.36223889     0.64700
H441        H  0.75747820  0.18503173  0.31494205     0.12500
N442        N  0.65433434  0.19848887  0.25402747     0.61300
H443        H  0.63123537  0.15949387  0.30324312     0.08700
O444        O  0.61499154  0.02178577  0.35753559    -0.40100
O445        O  0.57391656  0.05407487  0.33525477    -0.39300
O446        O  0.65220955  0.20030581  0.39937866    -0.39300
O447        O  0.68876996  0.16972947  0.42964614    -0.37000
O448        O  0.64523105  0.17742337  0.23118083    -0.37900
O449        O  0.63381412  0.22333042  0.26075570    -0.34100
O450        O  0.74327826  0.11016140  0.35837351    -0.35500
O451        O  0.74888402  0.16016038  0.38394429    -0.39800
C452        C  0.61567508  0.13632211  0.14304248    -0.13500
C453        C  0.65187577  0.13114460  0.13935161     0.16900
C454        C  0.66387059  0.10566493  0.11625210     0.03200
C455        C  0.63980473  0.08717509  0.09637973    -0.12000
C456        C  0.60355299  0.09293131  0.09950307    -0.03000
C457        C  0.59158545  0.11766792  0.12346683     0.02400
C458        C  0.67612542  0.15370354  0.15909992     0.09300
N459        N  0.70035425  0.09858340  0.11224893     0.65600
H460        H  0.64962685  0.06789766  0.07860949     0.18600
N461        N  0.55522690  0.12545059  0.12728954     0.76100
H462        H  0.60598578  0.15543775  0.16105156     0.10100
C463        C  0.67412088  0.19036216  0.15615482     0.03800
C464        C  0.69292642  0.21152677  0.17824577    -0.04900
C465        C  0.71486026  0.19741318  0.20351703    -0.23300
C466        C  0.71865280  0.16055324  0.20516389     0.13000
C467        C  0.69895627  0.13911725  0.18330272    -0.12500
N468        N  0.65253237  0.20670829  0.13107652     0.64700
H469        H  0.68898546  0.23942723  0.17607284     0.12500
N470        N  0.74238148  0.14440131  0.22842020     0.61300
H471        H  0.70089011  0.11096225  0.18583234     0.08700
O472        O  0.53925438  0.11523755  0.15370382    -0.40100
O473        O  0.54175923  0.14908838  0.10903252    -0.39300
O474        O  0.71371289  0.07304842  0.12800457    -0.39300
O475        O  0.71683903  0.11219033  0.08764736    -0.37000
O476        O  0.73079888  0.12312419  0.25040081    -0.37900
O477        O  0.77464273  0.14438331  0.22148830    -0.34100
O478        O  0.62461419  0.22170317  0.14021843    -0.35500
O479        O  0.66529768  0.21345033  0.10211118    -0.39800
C480        C  0.30019637  0.15463413  0.16496713    -0.13500
C481        C  0.33553682  0.14938927  0.17330713     0.16900
C482        C  0.34813687  0.16390533  0.20384471     0.03200
C483        C  0.32566487  0.18377085  0.22453877    -0.12000
C484        C  0.29067105  0.19029375  0.21559139    -0.03000
C485        C  0.27792976  0.17489086  0.18559203     0.02400
C486        C  0.35887367  0.13071834  0.14862348     0.09300
N487        N  0.38437422  0.16195082  0.21259329     0.65600
H488        H  0.33655876  0.19611951  0.24658111     0.18600
N489        N  0.24241932  0.17975702  0.17552334     0.76100
H490        H  0.28994402  0.14346840  0.14180696     0.10100
C491        C  0.37763352  0.10011676  0.15740750     0.03800
C492        C  0.39895096  0.08360556  0.13307541    -0.04900
C493        C  0.40129483  0.09611433  0.09945305    -0.23300
C494        C  0.38251112  0.12657678  0.09059882     0.13000
C495        C  0.36180361  0.14364447  0.11513794    -0.12500
N496        N  0.37350597  0.08396390  0.19006173     0.64700
H497        H  0.41269740  0.05988761  0.14023966     0.12500
N498        N  0.38516425  0.14130173  0.05722117     0.61300
H499        H  0.34788446  0.16726334  0.10797926     0.08700
O500        O  0.21960083  0.15818787  0.18554511    -0.40100
O501        O  0.23553610  0.19999768  0.15098636    -0.39300
O502        O  0.40627861  0.17989901  0.19591222    -0.39300
O503        O  0.39300754  0.14962812  0.24119926    -0.37000
O504        O  0.40641804  0.16594095  0.05176863    -0.37900
O505        O  0.36126284  0.13556538  0.03599169    -0.34100
O506        O  0.34691251  0.06525766  0.19566736    -0.35500
O507        O  0.39978589  0.08062823  0.20908873    -0.39800
C508        C  0.30675430  0.14004742  0.31669408    -0.13500
C509        C  0.33183118  0.15596349  0.33755821     0.16900
C510        C  0.33455094  0.19261272  0.33723834     0.03200
C511        C  0.31319672  0.21244727  0.31592788    -0.12000
C512        C  0.28865291  0.19698521  0.29407156    -0.03000
C513        C  0.28506309  0.16017996  0.29521010     0.02400
C514        C  0.35598867  0.13444951  0.35866730     0.09300
N515        N  0.35870759  0.21031240  0.35877260     0.65600
H516        H  0.31681355  0.24035512  0.31630689     0.18600
N517        N  0.25896688  0.14291487  0.27566980     0.76100
H518        H  0.30417240  0.11183739  0.31689153     0.10100
C519        C  0.34376748  0.11284984  0.38531510     0.03800
C520        C  0.36761768  0.09444031  0.40565730    -0.04900
C521        C  0.40389530  0.09659730  0.39981579    -0.23300
C522        C  0.41606694  0.11795329  0.37272812     0.13000
C523        C  0.39212715  0.13645797  0.35252719    -0.12500
N524        N  0.30723413  0.10968631  0.39241405     0.64700
H525        H  0.35749280  0.07802157  0.42598306     0.12500
N526        N  0.45254225  0.12202505  0.36574208     0.61300
H527        H  0.40188874  0.15272916  0.33191335     0.08700
O528        O  0.26822735  0.12250718  0.25215336    -0.40100
O529        O  0.22820542  0.14101500  0.28731403    -0.39300
O530        O  0.38737344  0.22096753  0.34651835    -0.39300
O531        O  0.34804538  0.22247722  0.38674751    -0.37000
O532        O  0.46943332  0.14550123  0.38092831    -0.37900
O533        O  0.46546747  0.10836268  0.33934895    -0.34100
O534        O  0.29125015  0.08250032  0.38327974    -0.35500
O535        O  0.29318597  0.12974540  0.41391285    -0.39800
C536        C  0.70325836  0.83374942  0.15884177    -0.13500
C537        C  0.67029985  0.84542234  0.17005354     0.16900
C538        C  0.65941297  0.83619131  0.20319108     0.03200
C539        C  0.68050167  0.81479162  0.22376144    -0.12000
C540        C  0.71376481  0.80322960  0.21288747    -0.03000
C541        C  0.72496054  0.81328092  0.17988715     0.02400
C542        C  0.64658408  0.86461045  0.14609945     0.09300
N543        N  0.62672417  0.84809286  0.21675035     0.65600
H544        H  0.66983938  0.80670593  0.24662369     0.18600
N545        N  0.75847874  0.80321944  0.16711180     0.76100
H546        H  0.71198106  0.83980650  0.13335009     0.10100
C547        C  0.65796767  0.89385716  0.12685957     0.03800
C548        C  0.63518490  0.91017306  0.10375724    -0.04900
C549        C  0.60058809  0.89863667  0.09993277    -0.23300
C550        C  0.58919149  0.86943247  0.11895350     0.13000
C551        C  0.61226908  0.85241782  0.14124935    -0.12500
N552        N  0.69200933  0.90836019  0.13156492     0.64700
H553        H  0.64423753  0.93291420  0.08969897     0.12500
N554        N  0.55468758  0.85584990  0.11494237     0.61300
H555        H  0.60337835  0.82913712  0.15445958     0.08700
O556        O  0.76030868  0.78038387  0.14410591    -0.40100
O557        O  0.78386445  0.82376753  0.17115477    -0.39300
O558        O  0.60226082  0.82647735  0.22155278    -0.39300
O559        O  0.62522388  0.87755147  0.23099047    -0.37000
O560        O  0.54889304  0.83386728  0.09184315    -0.37900
O561        O  0.53235392  0.86007946  0.13832275    -0.34100
O562        O  0.71436304  0.90641878  0.10790261    -0.35500
O563        O  0.69716328  0.92900078  0.15594784    -0.39800
C564        C  0.71382285  0.85438075  0.32641385    -0.13500
C565        C  0.68058654  0.84364383  0.33785580     0.16900
C566        C  0.66722413  0.81149645  0.32669903     0.03200
C567        C  0.68728273  0.79037782  0.30524291    -0.12000
C568        C  0.71966648  0.80155655  0.29227612    -0.03000
C569        C  0.73326941  0.83368628  0.30346670     0.02400
C570        C  0.65889523  0.86659859  0.35988259     0.10800
N571        N  0.63281594  0.80042072  0.33618441     0.65600
H572        H  0.67677649  0.76538507  0.29751460     0.18600
N573        N  0.76686413  0.84530847  0.29223872     0.76100
H574        H  0.72435744  0.87914734  0.33480340     0.10100
C575        C  0.66347421  0.86756921  0.39535616     0.03800
C576        C  0.64015425  0.88674650  0.41573429    -0.04900
C577        C  0.61210370  0.90548622  0.40139859    -0.23300
C578        C  0.60830914  0.90528694  0.36557220     0.13000
C579        C  0.63142711  0.88570408  0.34533182    -0.12500
N580        N  0.69124815  0.84857346  0.41113333     0.64700
H581        H  0.64386995  0.88651186  0.44301862     0.12500
N582        N  0.58195210  0.92564188  0.34908573     0.61300
H583        H  0.62780226  0.88524707  0.31800784     0.08700
O584        O  0.76915349  0.86579688  0.26706057    -0.40100
O585        O  0.79301826  0.84083550  0.31119518    -0.39300
O586        O  0.60868496  0.80098973  0.31442490    -0.39300
O587        O  0.62764707  0.78581243  0.36462289    -0.37000
O588        O  0.59002841  0.95486001  0.33623998    -0.37900
O589        O  0.55372562  0.91124702  0.34046124    -0.34100
O590        O  0.71956289  0.86399414  0.41761115    -0.35500
O591        O  0.68509786  0.81914332  0.42453709    -0.39800
C592        C  0.29906909  0.84631338  0.33344189    -0.13500
C593        C  0.33562296  0.84286172  0.33078276     0.16900
C594        C  0.34926533  0.81827329  0.30753167     0.03200
C595        C  0.32659203  0.79816708  0.28754133    -0.12000
C596        C  0.29005182  0.80219595  0.28939652    -0.03000
C597        C  0.27635825  0.82598410  0.31341115     0.02400
C598        C  0.35894126  0.86327588  0.35397317     0.09300
N599        N  0.38603343  0.81186762  0.30526055     0.65600
H600        H  0.33777390  0.77823127  0.27145086     0.18600
N601        N  0.23948961  0.82860901  0.31896273     0.76100
H602        H  0.28806622  0.86429621  0.35184025     0.10100
C603        C  0.38007561  0.89099162  0.34187946     0.03800
C604        C  0.40247236  0.90876966  0.36423588    -0.04900
C605        C  0.40380918  0.90026327  0.39908787    -0.23300
C606        C  0.38246075  0.87272298  0.41123086     0.13000
C607        C  0.36038864  0.85457106  0.38875532    -0.12500
N608        N  0.37769372  0.90269595  0.30736937     0.64700
H609        H  0.41807108  0.93023398  0.35440827     0.12500
N610        N  0.38428714  0.86159957  0.44592415     0.61300
H611        H  0.34465419  0.83313239  0.39843817     0.08700
O612        O  0.22393760  0.85695033  0.31235256    -0.40100
O613        O  0.22426545  0.80580172  0.33700918    -0.39300
O614        O  0.39910170  0.78701471  0.32222792    -0.39300
O615        O  0.40312266  0.82454953  0.28058222    -0.37000
O616        O  0.35873961  0.86711897  0.46564050    -0.37900
O617        O  0.40807065  0.84062044  0.45490057    -0.34100
O618        O  0.35229071  0.92179172  0.29864046    -0.35500
O619        O  0.40409819  0.90057610  0.28808438    -0.39800
C620        C  0.29433258  0.85362190  0.17742616    -0.13500
C621        C  0.32841415  0.84329531  0.16818568     0.16900
C622        C  0.34262615  0.81270256  0.18268690     0.03200
C623        C  0.32222352  0.79204765  0.20441036    -0.12000
C624        C  0.28782006  0.80149568  0.21267655    -0.03000
C625        C  0.27420855  0.83312840  0.20000317     0.02400
C626        C  0.34986379  0.86536840  0.14497415     0.09300
N627        N  0.37773716  0.80214416  0.17537568     0.65600
H628        H  0.33344988  0.76838233  0.21488980     0.18600
N629        N  0.24063989  0.84524642  0.21087515     0.76100
H630        H  0.28359970  0.87781509  0.16746175     0.10100
C631        C  0.34330280  0.86696856  0.10980261     0.03800
C632        C  0.36538574  0.88651657  0.08832760    -0.04900
C633        C  0.39425452  0.90478889  0.10127301    -0.23300
C634        C  0.40039597  0.90344797  0.13679390     0.13000
C635        C  0.37838023  0.88370879  0.15810216    -0.12500
N636        N  0.31512666  0.84771891  0.09535821     0.64700
H637        H  0.36015886  0.88683020  0.06128746     0.12500
N638        N  0.42820937  0.92266868  0.15194737     0.61300
H639        H  0.38353673  0.88274386  0.18518154     0.08700
O640        O  0.21334043  0.83163171  0.19905624    -0.40100
O641        O  0.23833221  0.86538170  0.23609055    -0.39300
O642        O  0.40024376  0.80219316  0.19872895    -0.39300
O643        O  0.38478203  0.78762288  0.14742084    -0.37000
O644        O  0.42290686  0.95380412  0.16116171    -0.37900
O645        O  0.45492184  0.90660955  0.16251045    -0.34100
O646        O  0.28671544  0.86307264  0.08872869    -0.35500
O647        O  0.32073044  0.81753847  0.08368637    -0.39800
C648        C  0.33973327  0.67995971  0.34134625    -0.13500
C649        C  0.37071326  0.67414154  0.32351044     0.16900
C650        C  0.37373146  0.68501997  0.28966249     0.03200
C651        C  0.34510949  0.70072906  0.27375219    -0.12000
C652        C  0.31214623  0.70330911  0.29021683    -0.03000
C653        C  0.31041440  0.69403629  0.32532849     0.02400
C654        C  0.39646999  0.65093601  0.33927302     0.09300
N655        N  0.40503829  0.67846922  0.27073380     0.65600
H656        H  0.34891597  0.71041476  0.24815034     0.18600
N657        N  0.27929554  0.69653669  0.34539669     0.76100
H658        H  0.33756008  0.67135436  0.36761935     0.10100
C659        C  0.41926323  0.66286465  0.36445323     0.03800
C660        C  0.43617150  0.63863981  0.38550034    -0.04900
C661        C  0.43013767  0.60249810  0.38196640    -0.23300
C662        C  0.40921922  0.59093695  0.35482767     0.13000
C663        C  0.39266112  0.61517822  0.33380161    -0.12500
N664        N  0.42394287  0.69943967  0.36994756     0.64700
H665        H  0.45252999  0.64832097  0.40577384     0.12500
N666        N  0.40426954  0.55482309  0.34799234     0.61300
H667        H  0.37512230  0.60600943  0.31419367     0.08700
O668        O  0.26445164  0.66840826  0.35409827    -0.40100
O669        O  0.27606597  0.72255322  0.36480201    -0.39300
O670        O  0.40923173  0.64924798  0.25656612    -0.39300
O671        O  0.43070625  0.69892550  0.27339645    -0.37000
O672        O  0.42580342  0.53990698  0.32845144    -0.37900
O673        O  0.37407042  0.54204683  0.35169056    -0.34100
O674        O  0.40392197  0.71553961  0.39013833    -0.35500
O675        O  0.44560177  0.71631377  0.35196546    -0.39800
C676        C  0.31552418  0.62920406  0.19984960    -0.13500
C677        C  0.33481022  0.64160773  0.17184165     0.16900
C678        C  0.33488444  0.67763203  0.16429825     0.03200
C679        C  0.31569371  0.70060304  0.18453588    -0.12000
C680        C  0.29749824  0.68872803  0.21339500    -0.03000
C681        C  0.29678475  0.65252001  0.22062582     0.02400
C682        C  0.35200864  0.61700458  0.14827148     0.09300
N683        N  0.35388209  0.69122949  0.13570382     0.65600
H684        H  0.31538046  0.72791161  0.17754852     0.18600
N685        N  0.27476647  0.63893995  0.24704021     0.76100
H686        H  0.31423607  0.60135671  0.20496013     0.10100
C687        C  0.38839232  0.61189688  0.14907879     0.03800
C688        C  0.40528443  0.59584320  0.12170051    -0.04900
C689        C  0.38622824  0.58335357  0.09395578    -0.23300
C690        C  0.34935039  0.58551951  0.09464835     0.13000
C691        C  0.33259965  0.60291624  0.12150344    -0.12500
N692        N  0.40839465  0.62244055  0.17777564     0.64700
H693        H  0.43350860  0.59314868  0.12213409     0.12500
N694        N  0.32873726  0.57244466  0.06733949     0.61300
H695        H  0.30451556  0.60675242  0.12075422     0.08700
O696        O  0.28798331  0.62330853  0.27223306    -0.40100
O697        O  0.24208623  0.63837755  0.24289344    -0.39300
O698        O  0.33745460  0.70480160  0.11120012    -0.39300
O699        O  0.38633024  0.69645835  0.13821254    -0.37000
O700        O  0.31987645  0.59276150  0.04348533    -0.37900
O701        O  0.31360896  0.54330490  0.07063901    -0.34100
O702        O  0.41088912  0.60178953  0.20278849    -0.35500
O703        O  0.42982722  0.64733440  0.17480184    -0.39800
C704        C  0.69239099  0.66595798  0.35346299    -0.13500
C705        C  0.68224186  0.63425772  0.33944636     0.16900
C706        C  0.68983199  0.62738845  0.30526926     0.03200
C707        C  0.70551911  0.65325991  0.28515044    -0.12000
C708        C  0.71196669  0.68717909  0.29780960    -0.03000
C709        C  0.70727583  0.69232386  0.33348340     0.02400
C710        C  0.65906813  0.61185569  0.35997516     0.09300
N711        N  0.68078845  0.59469051  0.29040459     0.65600
H712        H  0.71245826  0.64641818  0.25937003     0.18600
N713        N  0.71680192  0.72357808  0.35077517     0.76100
H714        H  0.68708130  0.67106532  0.38011155     0.10100
C715        C  0.67061050  0.59665961  0.39058966     0.03800
C716        C  0.64617072  0.58361654  0.41381806    -0.04900
C717        C  0.61017340  0.58625515  0.40749299    -0.23300
C718        C  0.59866515  0.60017599  0.37621486     0.13000
C719        C  0.62323894  0.61261912  0.35264189    -0.12500
N720        N  0.70688203  0.59582415  0.39915615     0.64700
H721        H  0.65544536  0.57264235  0.43760894     0.12500
N722        N  0.56237168  0.60208191  0.36796885     0.61300
H723        H  0.61417308  0.62489414  0.32937052     0.08700
O724        O  0.74581430  0.72388145  0.36596296    -0.40100
O725        O  0.69258904  0.74264246  0.36228918    -0.39300
O726        O  0.65215159  0.59185927  0.27494292    -0.39300
O727        O  0.70385434  0.57131982  0.28694805    -0.37000
O728        O  0.54644486  0.63082100  0.37119157    -0.37900
O729        O  0.54915329  0.57851470  0.34978066    -0.34100
O730        O  0.71837366  0.61691610  0.42097136    -0.35500
O731        O  0.72489494  0.56931112  0.39146737    -0.39800
C732        C  0.63238169  0.67250221  0.21351116    -0.13500
C733        C  0.64278991  0.65298120  0.18515443     0.16900
C734        C  0.67766496  0.65493235  0.17373863     0.03200
C735        C  0.70176425  0.67553705  0.19120239    -0.12000
C736        C  0.69183820  0.69446090  0.22026513    -0.03000
C737        C  0.65642171  0.69361473  0.23075176     0.02400
C738        C  0.61633889  0.63461779  0.16461868     0.09300
N739        N  0.68836079  0.63778898  0.14316400     0.65600
H740        H  0.72819015  0.67708134  0.18150691     0.18600
N741        N  0.64369800  0.71696048  0.25619468     0.76100
H742        H  0.60513829  0.67264229  0.22126662     0.10100
C743        C  0.61170893  0.59816426  0.16686102     0.03800
C744        C  0.59021879  0.58118667  0.14350431    -0.04900
C745        C  0.57293483  0.59995729  0.11784417    -0.23300
C746        C  0.57667186  0.63671796  0.11632961     0.13000
C747        C  0.59815268  0.65365014  0.13980398    -0.12500
N748        N  0.62848176  0.57800714  0.19274215     0.64700
H749        H  0.58742967  0.55301214  0.14514276     0.12500
N750        N  0.56163124  0.65690373  0.08942308     0.61300
H751        H  0.60209876  0.68164195  0.13756274     0.08700
O752        O  0.63196743  0.70483789  0.28389971    -0.40100
O753        O  0.63611948  0.74789961  0.24767805    -0.39300
O754        O  0.68579492  0.65343530  0.11493978    -0.39300
O755        O  0.69856665  0.60640915  0.14408639    -0.37000
O756        O  0.53735722  0.67827773  0.09596960    -0.37900
O757        O  0.57691798  0.65835250  0.06090977    -0.34100
O758        O  0.61178087  0.57130721  0.21975413    -0.35500
O759        O  0.65460580  0.55939677  0.18504094    -0.39800
C760        C  0.66417293  0.39939837  0.37577696    -0.13500
C761        C  0.64352278  0.38039913  0.35308051     0.16900
C762        C  0.60698161  0.38220199  0.35517327     0.03200
C763        C  0.59138520  0.40130612  0.38106863    -0.12000
C764        C  0.61173375  0.41859674  0.40529872    -0.03000
C765        C  0.64851163  0.41865926  0.40196774     0.02400
C766        C  0.66005133  0.35555533  0.32984042     0.09300
N767        N  0.58544144  0.36355509  0.33190972     0.65600
H768        H  0.56307811  0.40160519  0.38283058     0.18600
N769        N  0.67028067  0.43572307  0.42616617     0.76100
H770        H  0.69244556  0.39780559  0.37416356     0.10100
C771        C  0.67696508  0.36668824  0.30005753     0.03800
C772        C  0.69289013  0.34199291  0.27902639    -0.04900
C773        C  0.69264599  0.30609286  0.28758316    -0.23300
C774        C  0.67483790  0.29514890  0.31750679     0.13000
C775        C  0.65875674  0.32004246  0.33815265    -0.12500
N776        N  0.67940096  0.40304679  0.29176674     0.64700
H777        H  0.70721078  0.35120501  0.25687970     0.12500
N778        N  0.67206665  0.25925133  0.32752522     0.61300
H779        H  0.64545303  0.31160996  0.36120938     0.08700
O780        O  0.68095557  0.41895307  0.45183642    -0.40100
O781        O  0.68449570  0.46445600  0.41837512    -0.39300
O782        O  0.57553515  0.33294477  0.33920875    -0.39300
O783        O  0.57133206  0.37972240  0.30750616    -0.37000
O784        O  0.69325699  0.24754905  0.34930281    -0.37900
O785        O  0.64243532  0.24498163  0.32567701    -0.34100
O786        O  0.70667837  0.41977533  0.29927104    -0.35500
O787        O  0.65270352  0.41940273  0.28161540    -0.39800
C788        C  0.66885648  0.34358587  0.16753771    -0.13500
C789        C  0.63380945  0.33802041  0.17644110     0.16900
C790        C  0.62525764  0.31385613  0.20201742     0.03200
C791        C  0.65200267  0.29684269  0.21941809    -0.12000
C792        C  0.68729144  0.30224720  0.21087393    -0.03000
C793        C  0.69564176  0.32548967  0.18411207     0.02400
C794        C  0.60690497  0.35780046  0.15822180     0.09300
N795        N  0.58967312  0.30628489  0.21045402     0.65600
H796        H  0.64511776  0.27968254  0.24017917     0.18600
N797        N  0.73097223  0.33323515  0.17510607     0.76100
H798        H  0.67542550  0.36221470  0.14760398     0.10100
C799        C  0.60081651  0.39318235  0.16573876     0.03800
C800        C  0.58180079  0.41386861  0.14304514    -0.04900
C801        C  0.56820041  0.39948083  0.11320485    -0.23300
C802        C  0.57211265  0.36326097  0.10711534     0.13000
C803        C  0.59164349  0.34279435  0.12961872    -0.12500
N804        N  0.61479525  0.40857098  0.19576226     0.64700
H805        H  0.57843782  0.44146882  0.14831715     0.12500
N806        N  0.55941679  0.34751076  0.07673500     0.61300
H807        H  0.59662076  0.31556001  0.12371842     0.08700
O808        O  0.74304574  0.36275619  0.18295321    -0.40100
O809        O  0.74525194  0.31650311  0.15117026    -0.39300
O810        O  0.57434107  0.28160382  0.19549670    -0.39300
O811        O  0.57640980  0.31880992  0.23721205    -0.37000
O812        O  0.58012058  0.34265896  0.05208475    -0.37900
O813        O  0.53036175  0.33192479  0.07731264    -0.34100
O814        O  0.64188864  0.42727489  0.19379351    -0.35500
O815        O  0.59688954  0.40840361  0.22282640    -0.39800
C816        C  0.37268322  0.31833472  0.29934863    -0.13500
C817        C  0.35929117  0.34044300  0.32432802     0.16900
C818        C  0.32288465  0.34316560  0.32923249     0.03200
C819        C  0.30043020  0.32342027  0.30918428    -0.12000
C820        C  0.31377652  0.30095400  0.28425465    -0.03000
C821        C  0.35044623  0.29828163  0.27952149     0.02400
C822        C  0.38376067  0.36209913  0.34350450     0.09300
N823        N  0.30847894  0.36535301  0.35489269     0.65600
H824        H  0.27244542  0.32564286  0.31312378     0.18600
N825        N  0.36591608  0.27426591  0.25613007     0.76100
H826        H  0.40069888  0.31651869  0.29529154     0.10100
C827        C  0.41027533  0.34711798  0.36358351     0.03800
C828        C  0.43294301  0.36876508  0.38149014    -0.04900
C829        C  0.42922301  0.40527035  0.37991261    -0.23300
C830        C  0.40388168  0.41993795  0.35822530     0.13000
C831        C  0.38148017  0.39836674  0.34017396    -0.12500
N832        N  0.41304609  0.31006826  0.36768757     0.64700
H833        H  0.45201933  0.35676356  0.39812899     0.12500
N834        N  0.40067376  0.45676511  0.35399513     0.61300
H835        H  0.36205438  0.41000378  0.32358780     0.08700
O836        O  0.37282899  0.24383465  0.26662451    -0.40100
O837        O  0.38340703  0.28636199  0.23142277    -0.39300
O838        O  0.29131099  0.39221377  0.34642820    -0.39300
O839        O  0.30819981  0.35524633  0.38550126    -0.37000
O840        O  0.41559317  0.47103241  0.32884677    -0.37900
O841        O  0.37605232  0.47253407  0.36895045    -0.34100
O842        O  0.43821055  0.29389290  0.35402893    -0.35500
O843        O  0.39433443  0.29475117  0.38969329    -0.39800
C844        C  0.33868782  0.39145252  0.11453147    -0.13500
C845        C  0.35877434  0.37426575  0.13922225     0.16900
C846        C  0.39528082  0.37731210  0.13888121     0.03200
C847        C  0.41151667  0.39602065  0.11285324    -0.12000
C848        C  0.39181862  0.41143456  0.08670503    -0.03000
C849        C  0.35500389  0.41021777  0.08822272     0.02400
C850        C  0.34186942  0.35012152  0.16306367     0.09300
N851        N  0.41619553  0.36006966  0.16393089     0.65600
H852        H  0.43981333  0.39742978  0.11257814     0.18600
N853        N  0.33406906  0.42547802  0.06204814     0.76100
H854        H  0.31045037  0.38895601  0.11487368     0.10100
C855        C  0.32577904  0.36204277  0.19289628     0.03800
C856        C  0.30980324  0.33800084  0.21480319    -0.04900
C857        C  0.30946224  0.30198707  0.20716993    -0.23300
C858        C  0.32652987  0.29028022  0.17737171     0.13000
C859        C  0.34250252  0.31445614  0.15565640    -0.12500
N860        N  0.32424082  0.39854648  0.20038661     0.64700
H861        H  0.29585993  0.34785312  0.23681355     0.12500
N862        N  0.32936741  0.25404337  0.16931771     0.61300
H863        H  0.35555267  0.30533915  0.13279886     0.08700
O864        O  0.32276848  0.45628905  0.06548241    -0.40100
O865        O  0.32136654  0.40623232  0.03928449    -0.39300
O866        O  0.42922056  0.37748048  0.18787830    -0.39300
O867        O  0.42601968  0.32893932  0.15920774    -0.37000
O868        O  0.35743858  0.23843114  0.17659187    -0.37900
O869        O  0.31060911  0.24192715  0.14587702    -0.34100
O870        O  0.29848840  0.41651101  0.19046201    -0.35500
O871        O  0.35049639  0.41361830  0.21286365    -0.39800
C872        C  0.41626908  0.42281597  0.55975597     0.43400
N873        N  0.43344942  0.45691623  0.51976985     0.02200
C874        C  0.59909196  0.46508381  0.95755908    -0.05600
H875        H  0.59289327  0.47355919  0.58710042     0.07700
C876        C  0.52790903  0.58956302  0.56877830    -0.06000
Co877      Co  0.50522040  0.43775605  0.49650965     0.74200
N878        N  0.55552030  0.46468007  0.54732382    -0.25200
Co879      Co  0.55947139  0.50609703  0.01444450     0.74100
C880        C  0.55720511  0.57850643  0.59013822     0.43500
N881        N  0.45042773  0.55961182  0.52832208     0.01900
N882        N  0.55132490  0.54227706  0.54908824     0.02000
N883        N  0.55903607  0.42336262  0.94614760    -0.46000
H884        H  0.46702206  0.39044906  0.55730970     0.07700
N885        N  0.53392463  0.43872187  0.54091070     0.02200
N886        N  0.56573601  0.54572283  0.97889209     0.02000
C887        C  0.58485137  0.57534369  0.93647846     0.43600
N888        N  0.42820166  0.53412446  0.52193345    -0.24600
C889        C  0.47342777  0.41966918  0.92521250    -0.05500
N890        N  0.40695239  0.45094748  0.54090771    -0.45700
N891        N  0.59252494  0.54881023  0.95778522    -0.45900
C892        C  0.44470273  0.43114877  0.90337923     0.43400
N893        N  0.54798145  0.44452497  0.97024457     0.02200
N894        N  0.44364343  0.54214372  0.94930429    -0.24600
N895        N  0.45928081  0.43445473  0.52392360    -0.25100
N896        N  0.46600022  0.56726331  0.95610055     0.01900
H897        H  0.40858004  0.53344344  0.90761402     0.07800
H898        H  0.53561803  0.61034848  0.93594653     0.07800
N899        N  0.57070609  0.46918158  0.97741727    -0.25200
N900        N  0.52651758  0.56566156  0.54396880    -0.24800
N901        N  0.44801565  0.46505464  0.94652943     0.02200
C902        C  0.55872858  0.42399860  0.58718774     0.43600
C903        C  0.40106651  0.53633597  0.54352104    -0.06000
N904        N  0.54085438  0.56889966  0.97303192    -0.24800
H905        H  0.51165548  0.61266114  0.57040222     0.07800
N906        N  0.53543278  0.41344635  0.56389761    -0.46000
H907        H  0.37918369  0.51851714  0.54470231     0.07800
C908        C  0.44485016  0.58183996  0.90759915     0.43500
C909        C  0.45074327  0.41171015  0.54836666    -0.05500
Co910      Co  0.43842739  0.49752599  0.48443824     0.73800
N911        N  0.44010380  0.57939627  0.55397617    -0.45700
C912        C  0.59102751  0.43464831  0.93676910     0.43700
N913        N  0.43016050  0.45929313  0.91846922    -0.45700
Co914      Co  0.49432722  0.56752445  0.00090768     0.73900
C915        C  0.55072169  0.58916091  0.94669177    -0.06100
C916        C  0.57222632  0.45790468  0.57635002    -0.05600
N917        N  0.47313316  0.44193916  0.95130837    -0.25100
N918        N  0.57037316  0.54908401  0.57621448    -0.45900
H919        H  0.62194938  0.48165331  0.95754642     0.07700
C920        C  0.42879170  0.54901334  0.91915631    -0.06000
Cl921      Cl  0.50068014  0.50129120  0.49848764    -0.49000
C922        C  0.40911315  0.56634758  0.56469288     0.43500
H923        H  0.49002713  0.39683400  0.92321684     0.07700
N924        N  0.46715023  0.59166264  0.93217169    -0.45700
C925        C  0.57828263  0.91951826  0.57810334     0.43400
N926        N  0.56424135  0.95991131  0.54231060     0.02200
C927        C  0.41309933  0.06187718  0.54322001    -0.05600
H928        H  0.38691015  0.93583199  0.53093415     0.07700
C929        C  0.45833318  0.93646486  0.91086302    -0.06000
Co930      Co  0.49941124  0.99854733  0.56325776     0.74200
N931        N  0.43660332  0.96136746  0.53691625    -0.25200
Co932      Co  0.43886645  0.99862165  0.49763783     0.74100
C933        C  0.42473373  0.92076591  0.92028970     0.43500
N934        N  0.54473082  0.95941889  0.93880714     0.01900
N935        N  0.43935770  0.95934959  0.95779003     0.02000
N936        N  0.45306116  0.05955816  0.58515119    -0.46000
H937        H  0.52932029  0.93033507  0.61089939     0.07700
N938        N  0.45970557  0.96127297  0.56176930     0.02200
N939        N  0.44047500  0.03599148  0.95776129     0.02000
C940        C  0.42612799  0.07522436  0.92072554     0.43600
N941        N  0.56740693  0.95933745  0.96404062    -0.24600
C942        C  0.54591155  0.06035075  0.58824348    -0.05500
N943        N  0.58895001  0.93683765  0.54984613    -0.45700
N944        N  0.41580521  0.05888837  0.94970385    -0.45900
C945        C  0.57957779  0.07562286  0.57803499     0.43400
N946        N  0.46066977  0.03709870  0.56064860     0.02200
N947        N  0.56764360  0.03472844  0.96467716    -0.24600
N948        N  0.53835219  0.95988279  0.56470683    -0.25100
N949        N  0.54519696  0.03500004  0.93923694     0.01900
H950        H  0.61678724  0.06095933  0.97266745     0.07800
H951        H  0.47524271  0.06307002  0.88831997     0.07800
N952        N  0.43740898  0.03737331  0.53589783    -0.25200
N953        N  0.46528754  0.95978597  0.93532995    -0.24800
N954        N  0.56460148  0.03617409  0.54196891     0.02200
C955        C  0.42003790  0.92523850  0.57882726     0.43600
C956        C  0.59373996  0.93756261  0.95622502    -0.06000
N957        N  0.46632226  0.03561163  0.93536791    -0.24800
H958        H  0.47374682  0.93266000  0.88802002     0.07800
N959        N  0.45058940  0.94042715  0.58735664    -0.46000
H960        H  0.61757535  0.93474718  0.97066572     0.07800
C961        C  0.58497391  0.07191034  0.92434085     0.43500
C962        C  0.54473521  0.93499310  0.58816900    -0.05500
Co963      Co  0.56718332  0.99813453  0.50414558     0.73800
N964        N  0.55489315  0.93928913  0.91317553    -0.45700
C965        C  0.42370928  0.07682284  0.57598569     0.43700
N966        N  0.58951552  0.05888556  0.54933365    -0.45700
Co967      Co  0.50532251  0.99740846  0.93686514     0.73900
C968        C  0.45976662  0.05957316  0.91114591    -0.06100
C969        C  0.41078265  0.93908448  0.54516933    -0.05600
N970        N  0.53897322  0.03618343  0.56455112    -0.25100
N971        N  0.41439644  0.93672923  0.94946087    -0.45900
H972        H  0.38938138  0.06643230  0.52900290     0.07700
C973        C  0.59329814  0.05766466  0.95784022    -0.06000
Cl974      Cl  0.50312444  0.99820720  0.50080871    -0.49000
C975        C  0.58553229  0.92431158  0.92235704     0.43500
H976        H  0.53058847  0.06444754  0.61104695     0.07700
N977        N  0.55504085  0.05634297  0.91425448    -0.45700
C978        C  0.92161681  0.41884143  0.57378051     0.43400
N979        N  0.96292474  0.43179892  0.53864061     0.02200
C980        C  0.06025634  0.58590901  0.53817235    -0.05600
H981        H  0.93304772  0.60646448  0.52693323     0.07700
C982        C  0.93711303  0.53895311  0.91244275    -0.06000
Co983      Co  0.00147807  0.49661414  0.55941038     0.74200
N984        N  0.96200881  0.55876554  0.53398068    -0.25200
Co985      Co  0.99802548  0.55793942  0.49410896     0.74100
C986        C  0.92204732  0.57268873  0.92203540     0.43500
N987        N  0.96291473  0.45200958  0.93862939     0.01900
N988        N  0.96056269  0.55709916  0.95908432     0.02000
N989        N  0.06233737  0.54519016  0.57989198    -0.46000
H990        H  0.93276345  0.46728765  0.60642939     0.07700
N991        N  0.96336826  0.53569412  0.55897930     0.02200
N992        N  0.03626632  0.55895287  0.95597682     0.02000
C993        C  0.06763349  0.57829689  0.91420656     0.43600
N994        N  0.96412338  0.42897020  0.96365306    -0.24600
C995        C  0.06000409  0.44747142  0.58598503    -0.05500
N996        N  0.93918080  0.40765103  0.54595463    -0.45700
N997        N  0.05497926  0.58610734  0.94545066    -0.45900
C998        C  0.07257977  0.41222282  0.57765296     0.43400
N999        N  0.03961726  0.53634369  0.55593925     0.02200
N1000       N  0.03952345  0.43125436  0.96316231    -0.24600
N1001       N  0.96312250  0.45753019  0.56097439    -0.25100
N1002       N  0.03869388  0.45467252  0.93829387     0.01900
H1003       H  0.06945744  0.38401080  0.97061501     0.07800
H1004       H  0.05675594  0.52859595  0.88288364     0.07800
N1005       N  0.03768566  0.55997723  0.53127659    -0.25200
N1006       N  0.96061158  0.53149637  0.93658296    -0.24800
N1007       N  0.03874785  0.43120552  0.53783354     0.02200
C1008       C  0.92457117  0.57290933  0.57534276     0.43600
C1009       C  0.94445919  0.40131347  0.95545836    -0.06000
N1010       N  0.03546625  0.53364946  0.93328401    -0.24800
H1011       H  0.93356772  0.52433558  0.88924797     0.07800
N1012       N  0.94172150  0.54335811  0.58433706    -0.46000
H1013       H  0.94344103  0.37759871  0.97037480     0.07800
C1014       C  0.07912603  0.41861856  0.92324959     0.43500
C1015       C  0.93777659  0.45168045  0.58405547    -0.05500
Co1016     Co  0.00082347  0.42947856  0.50004778     0.73800
N1017       N  0.94385894  0.44083197  0.91274429    -0.45700
C1018       C  0.07694815  0.57605108  0.57038196     0.43700
N1019       N  0.05804394  0.40409095  0.54747045    -0.45700
Co1020     Co  0.99938605  0.49285190  0.93650753     0.73900
C1021       C  0.05492368  0.54317383  0.90627220    -0.06100
C1022       C  0.93810088  0.58313309  0.54178602    -0.05600
N1023       N  0.03890819  0.45670044  0.56030057    -0.25100
N1024       N  0.93829205  0.58249335  0.95096407    -0.45900
H1025       H  0.06258349  0.61007709  0.52391366     0.07700
C1026       C  0.06445228  0.40756256  0.95606933    -0.06000
Cl1027     Cl  0.99944087  0.49370800  0.49707836    -0.49000
C1028       C  0.93112861  0.40883444  0.92121892     0.43500
H1029       H  0.06246037  0.46184482  0.60943723     0.07700
N1030       N  0.06139657  0.44764719  0.91370691    -0.45700
C1031       C  0.25941560  0.25281491  0.71621422     0.46400
H1032       H  0.25941509  0.25070588  0.68826795    -0.02700
C1033       C  0.25808271  0.25780258  0.78182727     0.46400
H1034       H  0.25712868  0.26045918  0.80996063    -0.02700
C1035       C  0.28695752  0.27838524  0.73001860    -0.16400
C1036       C  0.22426064  0.26718705  0.73015936    -0.16100
C1037       C  0.26806444  0.21769345  0.73468551    -0.16500
C1038       C  0.28647687  0.28038965  0.76484852    -0.16500
C1039       C  0.22375422  0.26924821  0.76505059    -0.16000
C1040       C  0.26717032  0.22056176  0.76989949    -0.16400
C1041       C  0.74238287  0.26123606  0.71761381     0.46400
H1042       H  0.74282824  0.26444063  0.68958616    -0.02700
C1043       C  0.74084136  0.25553276  0.78316745     0.46400
H1044       H  0.74063995  0.25244827  0.81097514    -0.02700
C1045       C  0.71603470  0.28571958  0.73470984    -0.16400
C1046       C  0.73125275  0.22440462  0.72962400    -0.16100
C1047       C  0.77745580  0.27022404  0.73420214    -0.16500
C1048       C  0.71506051  0.28294441  0.76949475    -0.16500
C1049       C  0.72991580  0.22151478  0.76472154    -0.16000
C1050       C  0.77680007  0.26782420  0.76933377    -0.16400
C1051       C  0.25545960  0.73968303  0.71633338     0.46400
H1052       H  0.25657329  0.73906122  0.68829580    -0.02700
C1053       C  0.25606713  0.74121422  0.78200569     0.46400
H1054       H  0.25539289  0.74269159  0.80993121    -0.02700
C1055       C  0.28021869  0.71263471  0.73223622    -0.16400
C1056       C  0.26741248  0.77516597  0.73132324    -0.16100
C1057       C  0.21949854  0.72994397  0.73135141    -0.16500
C1058       C  0.28260212  0.71475710  0.76723627    -0.16500
C1059       C  0.26752790  0.77600450  0.76632095    -0.16000
C1060       C  0.22000112  0.73117084  0.76667042    -0.16400
C1061       C  0.74350160  0.73979052  0.71907763     0.46400
H1062       H  0.73931144  0.73813850  0.69125550    -0.02700
C1063       C  0.75286400  0.74235965  0.78394294     0.46400
H1064       H  0.75900522  0.74509351  0.81096993    -0.02700
C1065       C  0.71966864  0.71438791  0.73920960    -0.16400
C1066       C  0.78113629  0.72996285  0.72992754    -0.16100
C1067       C  0.73449151  0.77594131  0.73395426    -0.16500
C1068       C  0.72554680  0.71449025  0.77414241    -0.16500
C1069       C  0.78594241  0.73131663  0.76454130    -0.16000
C1070       C  0.73906600  0.77703412  0.76882082    -0.16400
C1071       C  0.16560554  0.69972251  0.65352566    -0.13500
C1072       C  0.14999397  0.66862381  0.66518317     0.16900
C1073       C  0.15526487  0.65919219  0.69953512     0.03200
C1074       C  0.17722220  0.67920545  0.72034199    -0.12000
C1075       C  0.19285597  0.71073641  0.70920614    -0.03000
C1076       C  0.18589609  0.72100426  0.67500771     0.02400
C1077       C  0.13057511  0.64521085  0.64086928     0.09300
N1078       N  0.13782772  0.62964181  0.71418458     0.65600
H1079       H  0.18247511  0.66852391  0.74507117     0.18600
N1080       N  0.19796130  0.75361003  0.66154797     0.76100
H1081       H  0.16239903  0.70762360  0.62723537     0.10100
C1082       C  0.10470009  0.65805430  0.61832770     0.03800
C1083       C  0.08835597  0.63542277  0.59513227    -0.04900
C1084       C  0.09662256  0.59958764  0.59389208    -0.23300
C1085       C  0.12265449  0.58678140  0.61605569     0.13000
C1086       C  0.13942893  0.60947481  0.63887736    -0.12500
N1087       N  0.09364411  0.69375295  0.61942895     0.64700
H1088       H  0.06820512  0.64588163  0.57867936     0.12500
N1089       N  0.13377837  0.55114321  0.61443896     0.61300
H1090       H  0.16020292  0.59912250  0.65461488     0.08700
O1091       O  0.17812544  0.77985014  0.66416212    -0.40100
O1092       O  0.22083995  0.75344855  0.63825465    -0.39300
O1093       O  0.15530700  0.60277065  0.72197939    -0.39300
O1094       O  0.10769179  0.63367439  0.72684105    -0.37000
O1095       O  0.15832691  0.54282640  0.59445558    -0.37900
O1096       O  0.12431890  0.52991961  0.63738401    -0.34100
O1097       O  0.10156742  0.71407257  0.59518464    -0.35500
O1098       O  0.06991906  0.70261141  0.64010894    -0.39800
C1099       C  0.10535109  0.62598060  0.83628783    -0.13500
C1100       C  0.12381079  0.65304604  0.85189526     0.16900
C1101       C  0.12185372  0.65669828  0.88741297     0.03200
C1102       C  0.10301816  0.63234242  0.90694833    -0.12000
C1103       C  0.08559445  0.60419304  0.89167788    -0.03000
C1104       C  0.08577334  0.60198575  0.85567264     0.02400
C1105       C  0.14816235  0.67456463  0.83122471     0.09300
N1106       N  0.13952634  0.68462249  0.90404575     0.65600
H1107       H  0.10271148  0.63509348  0.93436670     0.18600
N1108       N  0.06504067  0.57687469  0.83816170     0.76100
H1109       H  0.10631721  0.62338316  0.80884888     0.10100
C1110       C  0.18217342  0.66217652  0.82481050     0.03800
C1111       C  0.20483930  0.68163928  0.80428127    -0.04900
C1112       C  0.19433450  0.71321456  0.78925635    -0.23300
C1113       C  0.16006012  0.72547185  0.79501173     0.13000
C1114       C  0.13718593  0.70616388  0.81615282    -0.12500
N1115       N  0.19349230  0.62902145  0.83777607     0.64700
H1116       H  0.23034071  0.67108343  0.79836856     0.12500
N1117       N  0.14817389  0.75710003  0.77940766     0.61300
H1118       H  0.11077690  0.71553186  0.82044651     0.08700
O1119       O  0.03309546  0.58327473  0.83305326    -0.40100
O1120       O  0.07991193  0.55299516  0.82138197    -0.39300
O1121       O  0.12227775  0.71071932  0.91428661    -0.39300
O1122       O  0.17069047  0.68051572  0.91366736    -0.37000
O1123       O  0.13046633  0.75578478  0.75246447    -0.37900
O1124       O  0.15064286  0.78561770  0.79518675    -0.34100
O1125       O  0.20067895  0.60455595  0.81747913    -0.35500
O1126       O  0.20020211  0.62543807  0.86898755    -0.39800
C1127       C  0.15421095  0.29579519  0.82978052    -0.13500
C1128       C  0.15548680  0.33236134  0.82743771     0.16900
C1129       C  0.17845891  0.34810011  0.80373599     0.03200
C1130       C  0.19902303  0.32713154  0.78223252    -0.12000
C1131       C  0.19811241  0.29046171  0.78491820    -0.03000
C1132       C  0.17572319  0.27486504  0.80920144     0.02400
C1133       C  0.13501544  0.35376494  0.85188366     0.09300
N1134       N  0.18360444  0.38512569  0.80365586     0.65600
H1135       H  0.21723308  0.33947983  0.76468603     0.18600
N1136       N  0.17539735  0.23784337  0.81405151     0.76100
H1137       H  0.13722556  0.28348119  0.84846388     0.10100
C1138       C  0.10633965  0.37432234  0.84145470     0.03800
C1139       C  0.08944326  0.39617065  0.86489454    -0.04900
C1140       C  0.09950388  0.39677593  0.89919578    -0.23300
C1141       C  0.12737928  0.37517050  0.90985311     0.13000
C1142       C  0.14510923  0.35426327  0.88611427    -0.12500
N1143       N  0.09251604  0.37144244  0.80788554     0.64700
H1144       H  0.06724143  0.41155638  0.85649719     0.12500
N1145       N  0.13847686  0.37457920  0.94447245     0.61300
H1146       H  0.16707458  0.33847284  0.89439642     0.08700
O1147       O  0.15142155  0.21998268  0.80077381    -0.40100
O1148       O  0.19374537  0.22447168  0.83733538    -0.39300
O1149       O  0.20214254  0.39903072  0.82631792    -0.39300
O1150       O  0.16904166  0.40406580  0.78148803    -0.37000
O1151       O  0.13250319  0.34781606  0.96249835    -0.37900
O1152       O  0.16052213  0.39674683  0.95440976    -0.34100
O1153       O  0.07425877  0.34509617  0.80058277    -0.35500
O1154       O  0.09111502  0.39820986  0.78902130    -0.39800
C1155       C  0.17847559  0.32266694  0.66169588    -0.13500
C1156       C  0.14333449  0.31793973  0.66964267     0.16900
C1157       C  0.13426989  0.29555134  0.69688926     0.03200
C1158       C  0.16079511  0.27831120  0.71541884    -0.12000
C1159       C  0.19657180  0.28371025  0.70790260    -0.03000
C1160       C  0.20488310  0.30656133  0.68042690     0.02400
C1161       C  0.11795243  0.33801117  0.64873835     0.09300
N1162       N  0.09850205  0.28984218  0.70588624     0.65600
H1163       H  0.15335735  0.26091419  0.73604723     0.18600
N1164       N  0.23964388  0.31700484  0.67247593     0.76100
H1165       H  0.18571567  0.34034451  0.64114567     0.10100
C1166       C  0.10486356  0.37044627  0.65988815     0.03800
C1167       C  0.08987783  0.39387868  0.63654608    -0.04900
C1168       C  0.08775956  0.38592216  0.60170185    -0.23300
C1169       C  0.09959009  0.35266604  0.59084234     0.13000
C1170       C  0.11450271  0.32924342  0.61430137    -0.12500
N1171       N  0.10871384  0.38104589  0.69443514     0.64700
H1172       H  0.08065719  0.41878627  0.64594367     0.12500
N1173       N  0.09868532  0.34294260  0.55582279     0.61300
H1174       H  0.12539639  0.30481142  0.60517903     0.08700
O1175       O  0.24785620  0.34815433  0.67916422    -0.40100
O1176       O  0.25468924  0.30232657  0.64772228    -0.39300
O1177       O  0.08299333  0.26321516  0.69471886    -0.39300
O1178       O  0.08533458  0.30635064  0.73053963    -0.37000
O1179       O  0.12559144  0.34723294  0.53754817    -0.37900
O1180       O  0.07441936  0.32347348  0.54543702    -0.34100
O1181       O  0.13554697  0.39796343  0.70294540    -0.35500
O1182       O  0.08230015  0.38097133  0.71381429    -0.39800
C1183       C  0.83791297  0.29609627  0.66088435    -0.13500
C1184       C  0.84590215  0.33084785  0.66892706     0.16900
C1185       C  0.83331229  0.34492581  0.69973811     0.03200
C1186       C  0.81233406  0.32441669  0.72144181    -0.12000
C1187       C  0.80411468  0.28956435  0.71338112    -0.03000
C1188       C  0.81723766  0.27548390  0.68268734     0.02400
C1189       C  0.86523819  0.35287946  0.64382680     0.09300
N1190       N  0.84117466  0.38024271  0.70889004     0.65600
H1191       H  0.80151415  0.33618979  0.74419279     0.18600
N1192       N  0.80920656  0.24047164  0.67289175     0.76100
H1193       H  0.84698182  0.28517051  0.63703248     0.10100
C1194       C  0.89927666  0.34398588  0.63291965     0.03800
C1195       C  0.91677608  0.36522234  0.60918166    -0.04900
C1196       C  0.90104524  0.39564970  0.59630595    -0.23300
C1197       C  0.86690994  0.40445419  0.60683558     0.13000
C1198       C  0.84921571  0.38300564  0.63032639    -0.12500
N1199       N  0.91698202  0.31434934  0.64693235     0.64700
H1200       H  0.94325489  0.35853734  0.60162257     0.12500
N1201       N  0.84948186  0.43432810  0.59291701     0.61300
H1202       H  0.82276964  0.38975381  0.63793235     0.08700
O1203       O  0.78769991  0.23534829  0.64920791    -0.40100
O1204       O  0.82928484  0.21593556  0.68189048    -0.39300
O1205       O  0.81674026  0.40203204  0.71318857    -0.39300
O1206       O  0.87251285  0.39052714  0.70955661    -0.37000
O1207       O  0.83320464  0.43159369  0.56522977    -0.37900
O1208       O  0.84536924  0.46133113  0.61080719    -0.34100
O1209       O  0.92149144  0.28739867  0.62905765    -0.35500
O1210       O  0.93273148  0.31711097  0.67490200    -0.39800
C1211       C  0.82385878  0.32175982  0.83755760    -0.13500
C1212       C  0.85854755  0.31897122  0.82730693     0.16900
C1213       C  0.86708704  0.29680609  0.80003259     0.03200
C1214       C  0.84039757  0.27850681  0.78312338    -0.12000
C1215       C  0.80479706  0.28299943  0.79196907    -0.03000
C1216       C  0.79707258  0.30473274  0.82041626     0.02400
C1217       C  0.88418242  0.34016335  0.84640358     0.09300
N1218       N  0.90232955  0.29376553  0.78828096     0.65600
H1219       H  0.84748513  0.26176258  0.76203660     0.18600
N1220       N  0.76247082  0.31262458  0.83161692     0.76100
H1221       H  0.81720621  0.33856577  0.85879982     0.10100
C1222       C  0.88618743  0.37654888  0.84098246     0.03800
C1223       C  0.90177540  0.39813181  0.86541474    -0.04900
C1224       C  0.91521408  0.38425013  0.89596298    -0.23300
C1225       C  0.91366181  0.34740248  0.90081720     0.13000
C1226       C  0.89846751  0.32598708  0.87607900    -0.12500
N1227       N  0.87065785  0.39203967  0.81153238     0.64700
H1228       H  0.90252652  0.42608276  0.86077664     0.12500
N1229       N  0.92603969  0.33096823  0.93109613     0.61300
H1230       H  0.89583127  0.29820547  0.88112189     0.08700
O1231       O  0.74989390  0.29443307  0.85559080    -0.40100
O1232       O  0.75261699  0.34404281  0.82912731    -0.39300
O1233       O  0.92078423  0.26833599  0.79819106    -0.39300
O1234       O  0.91221369  0.31164584  0.76292695    -0.37000
O1235       O  0.95548277  0.31600875  0.93077249    -0.37900
O1236       O  0.90457693  0.32396870  0.95467360    -0.34100
O1237       O  0.84087669  0.40616248  0.81369066    -0.35500
O1238       O  0.88460446  0.38769041  0.78271089    -0.39800
C1239       C  0.85934902  0.64067483  0.88528714    -0.13500
C1240       C  0.87076351  0.64243673  0.85129905     0.16900
C1241       C  0.89962381  0.62209325  0.84109466     0.03200
C1242       C  0.91594379  0.59966778  0.86450900    -0.12000
C1243       C  0.90430302  0.59740361  0.89844913    -0.03000
C1244       C  0.87608308  0.61866777  0.90893961     0.02400
C1245       C  0.85118050  0.66428576  0.82648851     0.09300
N1246       N  0.91228940  0.62356641  0.80686655     0.65600
H1247       H  0.93796042  0.58400889  0.85607129     0.18600
N1248       N  0.86310265  0.61703346  0.94305399     0.76100
H1249       H  0.83704991  0.65614842  0.89336172     0.10100
C1250       C  0.81985007  0.65205844  0.81239723     0.03800
C1251       C  0.80050260  0.67361376  0.79072111    -0.04900
C1252       C  0.81107539  0.70794220  0.78303607    -0.23300
C1253       C  0.84263529  0.72022851  0.79700289     0.13000
C1254       C  0.86276247  0.69812043  0.81806697    -0.12500
N1255       N  0.80662545  0.61817157  0.82088939     0.64700
H1256       H  0.77634809  0.66359664  0.78078560     0.12500
N1257       N  0.85359365  0.75553461  0.79171871     0.61300
H1258       H  0.88667720  0.70793130  0.82913553     0.08700
O1259       O  0.83768444  0.59720954  0.95005865    -0.40100
O1260       O  0.87190308  0.64025968  0.96398803    -0.39300
O1261       O  0.93940285  0.64103926  0.79995806    -0.39300
O1262       O  0.89997180  0.60307215  0.78495647    -0.37000
O1263       O  0.83941734  0.77957002  0.80883368    -0.37900
O1264       O  0.88215654  0.76149597  0.77655321    -0.34100
O1265       O  0.78313917  0.61525477  0.84340995    -0.35500
O1266       O  0.81284038  0.59280951  0.80136461    -0.39800
C1267       C  0.84726658  0.69708235  0.66417721    -0.13500
C1268       C  0.83951985  0.66118097  0.66340249     0.16900
C1269       C  0.81346127  0.64814150  0.68566636     0.03200
C1270       C  0.79542727  0.67096794  0.70725931    -0.12000
C1271       C  0.80280586  0.70688322  0.70769850    -0.03000
C1272       C  0.82914651  0.71996183  0.68587563     0.02400
C1273       C  0.85984244  0.63772363  0.64032015     0.09300
N1274       N  0.80429039  0.61192735  0.68615793     0.65600
H1275       H  0.77481681  0.66051037  0.72326049     0.18600
N1276       N  0.83813442  0.75621122  0.68542797     0.76100
H1277       H  0.86813896  0.70740514  0.64835658     0.10100
C1278       C  0.86407213  0.64537788  0.60534252     0.03800
C1279       C  0.88465301  0.62363374  0.58478825    -0.04900
C1280       C  0.90162887  0.59402070  0.59815403    -0.23300
C1281       C  0.89713804  0.58615520  0.63314028     0.13000
C1282       C  0.87667439  0.60807050  0.65374987    -0.12500
N1283       N  0.84740517  0.67499674  0.59007131     0.64700
H1284       H  0.88716748  0.63018404  0.55807352     0.12500
N1285       N  0.91387080  0.55666457  0.64854661     0.61300
H1286       H  0.87472661  0.60229327  0.68069253     0.08700
O1287       O  0.83767528  0.77272154  0.65754884    -0.40100
O1288       O  0.85518661  0.76861177  0.70990220    -0.39300
O1289       O  0.81277975  0.59324335  0.71137340    -0.39300
O1290       O  0.78143664  0.60092863  0.66585214    -0.37000
O1291       O  0.94325714  0.56049078  0.66247352    -0.37900
O1292       O  0.89637526  0.52934067  0.65453805    -0.34100
O1293       O  0.86562161  0.70112391  0.58148042    -0.35500
O1294       O  0.81704946  0.67174488  0.57810802    -0.39800
C1295       C  0.63779204  0.10014321  0.84661433    -0.13500
C1296       C  0.65575198  0.12945112  0.85879473     0.16900
C1297       C  0.65079137  0.13930417  0.89312274     0.03200
C1298       C  0.62819638  0.11980263  0.91427791    -0.12000
C1299       C  0.60939483  0.09125176  0.90159950    -0.03000
C1300       C  0.61478087  0.08120240  0.86751682     0.02400
C1301       C  0.67615732  0.15102561  0.83397364     0.09300
N1302       N  0.66633474  0.17035049  0.90626049     0.65600
H1303       H  0.62424267  0.12788076  0.94040419     0.18600
N1304       N  0.59847748  0.05069943  0.85419294     0.76100
H1305       H  0.64141768  0.09209303  0.82043284     0.10100
C1306       C  0.71231462  0.15750307  0.83693719     0.03800
C1307       C  0.72930498  0.17925853  0.81305738    -0.04900
C1308       C  0.71138178  0.19384773  0.78519064    -0.23300
C1309       C  0.67533549  0.18569214  0.78152778     0.13000
C1310       C  0.65844140  0.16478491  0.80589872    -0.12500
N1311       N  0.73251726  0.14080106  0.86283578     0.64700
H1312       H  0.75686193  0.18485687  0.81629711     0.12500
N1313       N  0.65438817  0.19926723  0.75454887     0.61300
H1314       H  0.63069892  0.15977094  0.80313305     0.08700
O1315       O  0.61374848  0.02155125  0.85688506    -0.40100
O1316       O  0.57268493  0.05381237  0.83452628    -0.39300
O1317       O  0.65216447  0.19952322  0.90011460    -0.39300
O1318       O  0.68791748  0.16793080  0.93032444    -0.37000
O1319       O  0.64469671  0.17826002  0.73187194    -0.37900
O1320       O  0.63471203  0.22486074  0.76096622    -0.34100
O1321       O  0.74148707  0.10928238  0.85900311    -0.35500
O1322       O  0.74822567  0.15920703  0.88444249    -0.39800
C1323       C  0.61569390  0.13972687  0.64335156    -0.13500
C1324       C  0.65184722  0.13669918  0.63768312     0.16900
C1325       C  0.66394651  0.11359039  0.61243693     0.03200
C1326       C  0.63992274  0.09457546  0.59305201    -0.12000
C1327       C  0.60362207  0.09758456  0.59859800    -0.03000
C1328       C  0.59161580  0.12059827  0.62418181     0.02400
C1329       C  0.67596583  0.15853938  0.65817820     0.09300
N1330       N  0.70048266  0.10949966  0.60577815     0.65600
H1331       H  0.64990285  0.07695639  0.57379717     0.18600
N1332       N  0.55516177  0.12590638  0.63043836     0.76100
H1333       H  0.60602479  0.15730901  0.66280158     0.10100
C1334       C  0.67356916  0.19522618  0.65692534     0.03800
C1335       C  0.69227623  0.21544934  0.67992635    -0.04900
C1336       C  0.71433723  0.20026434  0.70453322    -0.23300
C1337       C  0.71829371  0.16340731  0.70459608     0.13000
C1338       C  0.69888614  0.14294633  0.68167416    -0.12500
N1339       N  0.65173475  0.21248106  0.63263831     0.64700
H1340       H  0.68822238  0.24340338  0.67900521     0.12500
N1341       N  0.74178134  0.14626973  0.72740385     0.61300
H1342       H  0.70105087  0.11471061  0.68283804     0.08700
O1343       O  0.54162820  0.11381679  0.65738875    -0.40100
O1344       O  0.53916700  0.14939222  0.61403147    -0.39300
O1345       O  0.71657446  0.08383672  0.61862946    -0.39300
O1346       O  0.71434777  0.12625449  0.58148393    -0.37000
O1347       O  0.72973021  0.12517925  0.74931406    -0.37900
O1348       O  0.77386480  0.14492037  0.71983614    -0.34100
O1349       O  0.62307755  0.22564716  0.64226367    -0.35500
O1350       O  0.66458631  0.22160877  0.60432392    -0.39800
C1351       C  0.29949059  0.15479288  0.66547578    -0.13500
C1352       C  0.33485605  0.14988723  0.67399595     0.16900
C1353       C  0.34714672  0.16478911  0.70450789     0.03200
C1354       C  0.32436033  0.18460191  0.72496451    -0.12000
C1355       C  0.28935246  0.19074964  0.71582226    -0.03000
C1356       C  0.27693047  0.17503932  0.68584663     0.02400
C1357       C  0.35850435  0.13117250  0.64950844     0.09300
N1358       N  0.38338836  0.16347335  0.71336287     0.65600
H1359       H  0.33502969  0.19731082  0.74692853     0.18600
N1360       N  0.24142790  0.17950238  0.67558341     0.76100
H1361       H  0.28943237  0.14335651  0.64236127     0.10100
C1362       C  0.37815885  0.10126363  0.65877057     0.03800
C1363       C  0.39974976  0.08475381  0.63461609    -0.04900
C1364       C  0.40157012  0.09655188  0.60071566    -0.23300
C1365       C  0.38194781  0.12634573  0.59141094     0.13000
C1366       C  0.36091784  0.14339494  0.61572943    -0.12500
N1367       N  0.37476783  0.08578119  0.69180689     0.64700
H1368       H  0.41415439  0.06156409  0.64217390     0.12500
N1369       N  0.38414637  0.14052494  0.55778552     0.61300
H1370       H  0.34639767  0.16651322  0.60817055     0.08700
O1371       O  0.21889430  0.15739003  0.68506858    -0.40100
O1372       O  0.23441432  0.20002543  0.65130530    -0.39300
O1373       O  0.40522129  0.18073187  0.69591312    -0.39300
O1374       O  0.39207733  0.15250432  0.74246407    -0.37000
O1375       O  0.40540465  0.16499945  0.55165827    -0.37900
O1376       O  0.35995005  0.13447874  0.53695824    -0.34100
O1377       O  0.34856735  0.06678086  0.69820572    -0.35500
O1378       O  0.40134422  0.08340145  0.71057280    -0.39800
C1379       C  0.30491248  0.13998302  0.81643238    -0.13500
C1380       C  0.32973837  0.15592433  0.83754943     0.16900
C1381       C  0.33213627  0.19257848  0.83765025     0.03200
C1382       C  0.31084824  0.21243095  0.81633714    -0.12000
C1383       C  0.28658819  0.19696524  0.79419740    -0.03000
C1384       C  0.28317871  0.16014181  0.79504045     0.02400
C1385       C  0.35404459  0.13445020  0.85844134     0.09300
N1386       N  0.35585582  0.21024858  0.85965940     0.65600
H1387       H  0.31428070  0.24036204  0.81696453     0.18600
N1388       N  0.25719011  0.14289392  0.77534530     0.76100
H1389       H  0.30255274  0.11175338  0.81638114     0.10100
C1390       C  0.34198621  0.11263686  0.88496703     0.03800
C1391       C  0.36597543  0.09423844  0.90513195    -0.04900
C1392       C  0.40222831  0.09660709  0.89918799    -0.23300
C1393       C  0.41423148  0.11818714  0.87220481     0.13000
C1394       C  0.39014747  0.13674115  0.85222468    -0.12500
N1395       N  0.30547946  0.10925510  0.89211144     0.64700
H1396       H  0.35597757  0.07765084  0.92538632     0.12500
N1397       N  0.45066272  0.12239416  0.86508322     0.61300
H1398       H  0.39975347  0.15325635  0.83172151     0.08700
O1399       O  0.26657933  0.12273017  0.75167746    -0.40100
O1400       O  0.22645056  0.14067712  0.78699377    -0.39300
O1401       O  0.38424170  0.22196056  0.84771152    -0.39300
O1402       O  0.34491655  0.22129869  0.88797634    -0.37000
O1403       O  0.46748729  0.14602091  0.88011856    -0.37900
O1404       O  0.46351155  0.10878761  0.83862795    -0.34100
O1405       O  0.28958375  0.08207356  0.88282420    -0.35500
O1406       O  0.29131945  0.12922136  0.91362407    -0.39800
C1407       C  0.70412545  0.83278247  0.65876771    -0.13500
C1408       C  0.67124374  0.84464168  0.66986592     0.16900
C1409       C  0.66013136  0.83545009  0.70299801     0.03200
C1410       C  0.68106200  0.81392967  0.72323865    -0.12000
C1411       C  0.71415909  0.80206836  0.71279399    -0.03000
C1412       C  0.72562367  0.81217943  0.67981925     0.02400
C1413       C  0.64775103  0.86409570  0.64597832     0.09300
N1414       N  0.62761500  0.84789411  0.71642917     0.65600
H1415       H  0.66960772  0.80534215  0.74782292     0.18600
N1416       N  0.75921679  0.80208981  0.66726163     0.76100
H1417       H  0.71307219  0.83895125  0.63311399     0.10100
C1418       C  0.65924832  0.89374526  0.62744736     0.03800
C1419       C  0.63658733  0.91061277  0.60464858    -0.04900
C1420       C  0.60210132  0.89901884  0.60023929    -0.23300
C1421       C  0.59068800  0.86917364  0.61827549     0.13000
C1422       C  0.61354788  0.85185663  0.64056973    -0.12500
N1423       N  0.69331646  0.90801798  0.63254395     0.64700
H1424       H  0.64566866  0.93374785  0.59123289     0.12500
N1425       N  0.55656191  0.85511816  0.61298842     0.61300
H1426       H  0.60465063  0.82826194  0.65328242     0.08700
O1427       O  0.76117267  0.77903428  0.64447284    -0.40100
O1428       O  0.78452441  0.82277283  0.67115764    -0.39300
O1429       O  0.60287325  0.82664609  0.72146589    -0.39300
O1430       O  0.62637778  0.87764844  0.73010074    -0.37000
O1431       O  0.55147346  0.83495257  0.58821418    -0.37900
O1432       O  0.53393773  0.85696254  0.63640661    -0.34100
O1433       O  0.71596815  0.90579120  0.60917701    -0.35500
O1434       O  0.69826467  0.92878649  0.65686379    -0.39800
C1435       C  0.71148750  0.85453075  0.82444460    -0.13500
C1436       C  0.67873201  0.84290048  0.83637564     0.16900
C1437       C  0.66640956  0.81006347  0.82605452     0.03200
C1438       C  0.68716153  0.78898319  0.80516344    -0.12000
C1439       C  0.71919571  0.80088164  0.79191770    -0.03000
C1440       C  0.73153761  0.83393656  0.80190595     0.02400
C1441       C  0.65657986  0.86550370  0.85828190     0.10800
N1442       N  0.63220555  0.79833965  0.83549114     0.65600
H1443       H  0.67742091  0.76362518  0.79803239     0.18600
N1444       N  0.76423868  0.84682571  0.78950659     0.76100
H1445       H  0.72109729  0.87993275  0.83203194     0.10100
C1446       C  0.66026681  0.86558135  0.89386865     0.03800
C1447       C  0.63684628  0.88475315  0.91409208    -0.04900
C1448       C  0.60944622  0.90423155  0.89953211    -0.23300
C1449       C  0.60632123  0.90467379  0.86363393     0.13000
C1450       C  0.62967673  0.88522330  0.84349400    -0.12500
N1451       N  0.68729587  0.84575073  0.90990270     0.64700
H1452       H  0.63996547  0.88393155  0.94144439     0.12500
N1453       N  0.58039794  0.92548140  0.84702070     0.61300
H1454       H  0.62666145  0.88532719  0.81609100     0.08700
O1455       O  0.76521849  0.86412080  0.76209039    -0.40100
O1456       O  0.79051216  0.84665927  0.80877313    -0.39300
O1457       O  0.60799119  0.79902178  0.81382274    -0.39300
O1458       O  0.62745673  0.78275404  0.86350419    -0.37000
O1459       O  0.58903866  0.95453690  0.83416987    -0.37900
O1460       O  0.55197152  0.91156136  0.83827557    -0.34100
O1461       O  0.71545553  0.86066276  0.91791134    -0.35500
O1462       O  0.68036429  0.81598620  0.92218660    -0.39800
C1463       C  0.29757232  0.84370759  0.83195173    -0.13500
C1464       C  0.33421932  0.84182192  0.82888025     0.16900
C1465       C  0.34860535  0.81826042  0.80504833     0.03200
C1466       C  0.32657800  0.79767446  0.78486869    -0.12000
C1467       C  0.28993668  0.80027598  0.78701335    -0.03000
C1468       C  0.27551678  0.82293669  0.81165201     0.02400
C1469       C  0.35699128  0.86268609  0.85221206     0.09300
N1470       N  0.38556491  0.81328027  0.80240428     0.65600
H1471       H  0.33841783  0.77842454  0.76844821     0.18600
N1472       N  0.23861886  0.82391715  0.81752657     0.76100
H1473       H  0.28602164  0.86082529  0.85081294     0.10100
C1474       C  0.37717796  0.89120663  0.84034761     0.03800
C1475       C  0.39936245  0.90921113  0.86273236    -0.04900
C1476       C  0.40141942  0.90011745  0.89740189    -0.23300
C1477       C  0.38097201  0.87180953  0.90933991     0.13000
C1478       C  0.35911866  0.85343651  0.88682780    -0.12500
N1479       N  0.37410737  0.90338790  0.80604788     0.64700
H1480       H  0.41430332  0.93122011  0.85307909     0.12500
N1481       N  0.38364966  0.86006324  0.94377912     0.61300
H1482       H  0.34415410  0.83137058  0.89632825     0.08700
O1483       O  0.22158626  0.85119135  0.81017636    -0.40100
O1484       O  0.22467270  0.80088673  0.83627245    -0.39300
O1485       O  0.39967635  0.78868090  0.81891650    -0.39300
O1486       O  0.40191461  0.82681960  0.77768302    -0.37000
O1487       O  0.35882214  0.86574954  0.96430218    -0.37900
O1488       O  0.40713643  0.83829267  0.95165330    -0.34100
O1489       O  0.34830228  0.92224640  0.79797409    -0.35500
O1490       O  0.40030582  0.90209745  0.78642730    -0.39800
C1491       C  0.29670140  0.85200163  0.67621658    -0.13500
C1492       C  0.33104891  0.84182222  0.66780083     0.16900
C1493       C  0.34462869  0.81067716  0.68173930     0.03200
C1494       C  0.32347697  0.78954479  0.70230369    -0.12000
C1495       C  0.28907317  0.79926397  0.71031965    -0.03000
C1496       C  0.27591996  0.83115746  0.69786399     0.02400
C1497       C  0.35296990  0.86409861  0.64522284     0.09300
N1498       N  0.37980192  0.79998559  0.67494001     0.65600
H1499       H  0.33418844  0.76541119  0.71226655     0.18600
N1500       N  0.24182469  0.84283502  0.70750548     0.76100
H1501       H  0.28627352  0.87637987  0.66637132     0.10100
C1502       C  0.34585686  0.86731812  0.61027790     0.03800
C1503       C  0.36800412  0.88716479  0.58922577    -0.04900
C1504       C  0.39747214  0.90428974  0.60234499    -0.23300
C1505       C  0.40435209  0.90120341  0.63765312     0.13000
C1506       C  0.38223234  0.88109905  0.65856880    -0.12500
N1507       N  0.31696852  0.84940152  0.59555485     0.64700
H1508       H  0.36221960  0.88867827  0.56233806     0.12500
N1509       N  0.43311424  0.91883473  0.65298399     0.61300
H1510       H  0.38785133  0.87884973  0.68549338     0.08700
O1511       O  0.21562646  0.83382251  0.69037595    -0.40100
O1512       O  0.23740522  0.85826574  0.73547532    -0.39300
O1513       O  0.40203401  0.80039422  0.69853410    -0.39300
O1514       O  0.38705750  0.78475862  0.64739715    -0.37000
O1515       O  0.42899031  0.94961899  0.66372253    -0.37900
O1516       O  0.45951695  0.90147030  0.66227853    -0.34100
O1517       O  0.28876095  0.86565590  0.59023931    -0.35500
O1518       O  0.32170587  0.81978120  0.58229932    -0.39800
C1519       C  0.34258836  0.67933468  0.83762964    -0.13500
C1520       C  0.37387224  0.67514731  0.81979216     0.16900
C1521       C  0.37638715  0.68651108  0.78603722     0.03200
C1522       C  0.34704179  0.70105074  0.77025153    -0.12000
C1523       C  0.31401734  0.70207997  0.78680160    -0.03000
C1524       C  0.31264892  0.69216394  0.82169936     0.02400
C1525       C  0.40062200  0.65292132  0.83547016     0.09300
N1526       N  0.40803784  0.68178942  0.76712410     0.65600
H1527       H  0.35029563  0.71094985  0.74464920     0.18600
N1528       N  0.28114694  0.69205430  0.84133029     0.76100
H1529       H  0.34070904  0.67019695  0.86375347     0.10100
C1530       C  0.42203130  0.66547636  0.86152581     0.03800
C1531       C  0.43839524  0.64173221  0.88351131    -0.04900
C1532       C  0.43330969  0.60546565  0.87989882    -0.23300
C1533       C  0.41457782  0.59325078  0.85153709     0.13000
C1534       C  0.39836530  0.61703485  0.82970514    -0.12500
N1535       N  0.42562272  0.70218554  0.86701260     0.64700
H1536       H  0.45329776  0.65183630  0.90463607     0.12500
N1537       N  0.41087685  0.55690092  0.84480490     0.61300
H1538       H  0.38198417  0.60735956  0.80939915     0.08700
O1539       O  0.26778471  0.66277932  0.84856637    -0.40100
O1540       O  0.27599842  0.71701802  0.86164087    -0.39300
O1541       O  0.41393043  0.65288366  0.75289605    -0.39300
O1542       O  0.43246938  0.70370217  0.76983248    -0.37000
O1543       O  0.43527311  0.54125318  0.82937627    -0.37900
O1544       O  0.38066643  0.54367372  0.84528881    -0.34100
O1545       O  0.40471531  0.71784420  0.88668203    -0.35500
O1546       O  0.44731134  0.71954353  0.84950694    -0.39800
C1547       C  0.31865869  0.62758293  0.69840350    -0.13500
C1548       C  0.33677079  0.63981989  0.66965827     0.16900
C1549       C  0.33526898  0.67551652  0.66089969     0.03200
C1550       C  0.31598664  0.69848339  0.68102587    -0.12000
C1551       C  0.29883061  0.68678301  0.71055062    -0.03000
C1552       C  0.29941524  0.65077805  0.71875689     0.02400
C1553       C  0.35449645  0.61509365  0.64678882     0.09300
N1554       N  0.35266879  0.68870354  0.63118197     0.65600
H1555       H  0.31482075  0.72564316  0.67346752     0.18600
N1556       N  0.27829022  0.63715292  0.74585080     0.76100
H1557       H  0.31857153  0.59987496  0.70435891     0.10100
C1558       C  0.39094806  0.61079623  0.64782029     0.03800
C1559       C  0.40814140  0.59397263  0.62112032    -0.04900
C1560       C  0.38929813  0.58014111  0.59386140    -0.23300
C1561       C  0.35238850  0.58152371  0.59448382     0.13000
C1562       C  0.33531628  0.59952999  0.62068901    -0.12500
N1563       N  0.41074265  0.62318508  0.67593967     0.64700
H1564       H  0.43641940  0.59193414  0.62158803     0.12500
N1565       N  0.33202065  0.56703764  0.56768433     0.61300
H1566       H  0.30714858  0.60268599  0.61990219     0.08700
O1567       O  0.29227815  0.62062255  0.77009604    -0.40100
O1568       O  0.24545317  0.63708907  0.74293230    -0.39300
O1569       O  0.33484368  0.70060666  0.60679848    -0.39300
O1570       O  0.38501553  0.69502031  0.63218893    -0.37000
O1571       O  0.32339033  0.58609084  0.54279203    -0.37900
O1572       O  0.31679655  0.53813182  0.57231449    -0.34100
O1573       O  0.41644931  0.60272447  0.70058506    -0.35500
O1574       O  0.42900317  0.65045110  0.67262883    -0.39800
C1575       C  0.69144368  0.66736752  0.85484391    -0.13500
C1576       C  0.68108689  0.63550235  0.84135450     0.16900
C1577       C  0.68902367  0.62784483  0.80741449     0.03200
C1578       C  0.70520716  0.65312776  0.78692616    -0.12000
C1579       C  0.71205017  0.68720138  0.79898685    -0.03000
C1580       C  0.70711570  0.69306296  0.83456784     0.02400
C1581       C  0.65782145  0.61345250  0.86220954     0.09300
N1582       N  0.68007999  0.59480856  0.79322160     0.65600
H1583       H  0.71236371  0.64565216  0.76137290     0.18600
N1584       N  0.71781323  0.72407726  0.85163214     0.76100
H1585       H  0.68606544  0.67298638  0.88137983     0.10100
C1586       C  0.66938784  0.59823260  0.89281700     0.03800
C1587       C  0.64497914  0.58500521  0.91601842    -0.04900
C1588       C  0.60898314  0.58765217  0.90975102    -0.23300
C1589       C  0.59744288  0.60175884  0.87852666     0.13000
C1590       C  0.62199176  0.61423376  0.85493594    -0.12500
N1591       N  0.70564434  0.59758677  0.90142746     0.64700
H1592       H  0.65425815  0.57396964  0.93978064     0.12500
N1593       N  0.56113235  0.60390850  0.87036614     0.61300
H1594       H  0.61290888  0.62651712  0.83167350     0.08700
O1595       O  0.74718738  0.72362768  0.86615673    -0.40100
O1596       O  0.69437694  0.74370702  0.86375273    -0.39300
O1597       O  0.65159772  0.59158612  0.77757048    -0.39300
O1598       O  0.70300359  0.57114701  0.79093646    -0.37000
O1599       O  0.54534298  0.63267499  0.87397756    -0.37900
O1600       O  0.54785673  0.58075099  0.85172749    -0.34100
O1601       O  0.71693373  0.61854853  0.92346042    -0.35500
O1602       O  0.72390364  0.57133341  0.89345268    -0.39800
C1603       C  0.63363844  0.67138096  0.71304118    -0.13500
C1604       C  0.64451216  0.65144564  0.68511779     0.16900
C1605       C  0.67968340  0.65292379  0.67450103     0.03200
C1606       C  0.70355680  0.67349476  0.69231262    -0.12000
C1607       C  0.69309191  0.69295976  0.72085593    -0.03000
C1608       C  0.65745138  0.69248217  0.73059559     0.02400
C1609       C  0.61837288  0.63288379  0.66431711     0.09300
N1610       N  0.69091282  0.63549822  0.64425786     0.65600
H1611       H  0.73021802  0.67471949  0.68320625     0.18600
N1612       N  0.64435313  0.71608880  0.75562559     0.76100
H1613       H  0.60623935  0.67179467  0.72023555     0.10100
C1614       C  0.61507697  0.59622747  0.66540369     0.03800
C1615       C  0.59408832  0.57927241  0.64158665    -0.04900
C1616       C  0.57579182  0.59826470  0.61673669    -0.23300
C1617       C  0.57803453  0.63516850  0.61653977     0.13000
C1618       C  0.59919268  0.65206442  0.64033139    -0.12500
N1619       N  0.63233502  0.57590929  0.69087497     0.64700
H1620       H  0.59229768  0.55098181  0.64236888     0.12500
N1621       N  0.56157630  0.65574550  0.59073649     0.61300
H1622       H  0.60203983  0.68024480  0.63900544     0.08700
O1623       O  0.63179463  0.70421920  0.78309121    -0.40100
O1624       O  0.63728925  0.74705455  0.74678831    -0.39300
O1625       O  0.68773343  0.65040013  0.61571815    -0.39300
O1626       O  0.70322544  0.60491185  0.64591012    -0.37000
O1627       O  0.53645358  0.67564568  0.59854082    -0.37900
O1628       O  0.57608351  0.65892471  0.56196835    -0.34100
O1629       O  0.61708775  0.57105695  0.71903400    -0.35500
O1630       O  0.65697570  0.55572261  0.68235561    -0.39800
C1631       C  0.66378987  0.39980269  0.88016893    -0.13500
C1632       C  0.64383843  0.38032277  0.85725723     0.16900
C1633       C  0.60723302  0.38177293  0.85866253     0.03200
C1634       C  0.59091487  0.40123358  0.88389654    -0.12000
C1635       C  0.61052199  0.41913444  0.90829110    -0.03000
C1636       C  0.64739063  0.41929353  0.90580089     0.02400
C1637       C  0.66116576  0.35586938  0.83407802     0.09300
N1638       N  0.58630356  0.36261824  0.83525176     0.65600
H1639       H  0.56257709  0.40135728  0.88498550     0.18600
N1640       N  0.66852047  0.43681334  0.93022341     0.76100
H1641       H  0.69210212  0.39853542  0.87909136     0.10100
C1642       C  0.67912472  0.36754643  0.80504154     0.03800
C1643       C  0.69557851  0.34319840  0.78397648    -0.04900
C1644       C  0.69448847  0.30706531  0.79151381    -0.23300
C1645       C  0.67582158  0.29561637  0.82070910     0.13000
C1646       C  0.65952600  0.32017101  0.84161046    -0.12500
N1647       N  0.68181084  0.40404904  0.79740536     0.64700
H1648       H  0.71066824  0.35279471  0.76248985     0.12500
N1649       N  0.67197928  0.25947522  0.82940019     0.61300
H1650       H  0.64552760  0.31128736  0.86410921     0.08700
O1651       O  0.67985140  0.42004108  0.95562236    -0.40100
O1652       O  0.68193413  0.46599094  0.92265758    -0.39300
O1653       O  0.57791320  0.33145157  0.84210101    -0.39300
O1654       O  0.57070414  0.37871707  0.81168410    -0.37000
O1655       O  0.69251326  0.24636076  0.85101344    -0.37900
O1656       O  0.64210851  0.24595640  0.82636618    -0.34100
O1657       O  0.70974584  0.42016509  0.80385173    -0.35500
O1658       O  0.65515619  0.42094344  0.78798162    -0.39800
C1659       C  0.67471714  0.34993743  0.67324871    -0.13500
C1660       C  0.63925744  0.34309000  0.67922564     0.16900
C1661       C  0.62921648  0.31717200  0.70257464     0.03200
C1662       C  0.65480623  0.29958548  0.72085389    -0.12000
C1663       C  0.69035476  0.30601966  0.71495936    -0.03000
C1664       C  0.70040842  0.33113381  0.69053290     0.02400
C1665       C  0.61337991  0.36240596  0.65955232     0.09300
N1666       N  0.59329678  0.30823185  0.70761921     0.65600
H1667       H  0.64686084  0.28077848  0.73984857     0.18600
N1668       N  0.73627997  0.33913138  0.68416401     0.76100
H1669       H  0.68241499  0.36971115  0.65479590     0.10100
C1670       C  0.60768987  0.39816342  0.66536596     0.03800
C1671       C  0.58806942  0.41751972  0.64222673    -0.04900
C1672       C  0.57412527  0.40155384  0.61334971    -0.23300
C1673       C  0.57820669  0.36516971  0.60865003     0.13000
C1674       C  0.59779104  0.34587395  0.63193413    -0.12500
N1675       N  0.62267309  0.41524770  0.69402956     0.64700
H1676       H  0.58469121  0.44534600  0.64626252     0.12500
N1677       N  0.56586806  0.34811517  0.57878990     0.61300
H1678       H  0.60266785  0.31835167  0.62731683     0.08700
O1679       O  0.74913078  0.36607577  0.69754542    -0.40100
O1680       O  0.75121736  0.32605076  0.65849974    -0.39300
O1681       O  0.58066833  0.28255438  0.69187059    -0.39300
O1682       O  0.57667533  0.32097412  0.73245056    -0.37000
O1683       O  0.58593892  0.34520058  0.55335772    -0.37900
O1684       O  0.53846502  0.32983910  0.58044551    -0.34100
O1685       O  0.65117108  0.43152430  0.69065807    -0.35500
O1686       O  0.60455310  0.41938451  0.72063261    -0.39800
C1687       C  0.36947527  0.32014724  0.80046920    -0.13500
C1688       C  0.35550609  0.34268679  0.82483873     0.16900
C1689       C  0.31899622  0.34482469  0.82938508     0.03200
C1690       C  0.29709406  0.32414289  0.80963015    -0.12000
C1691       C  0.31104466  0.30141858  0.78522627    -0.03000
C1692       C  0.34777462  0.29919777  0.78093151     0.02400
C1693       C  0.37955749  0.36494185  0.84401614     0.09300
N1694       N  0.30388331  0.36748750  0.85425538     0.65600
H1695       H  0.26904253  0.32602619  0.81322895     0.18600
N1696       N  0.36380498  0.27488974  0.75816622     0.76100
H1697       H  0.39753887  0.31871391  0.79663556     0.10100
C1698       C  0.40655995  0.35046861  0.86383971     0.03800
C1699       C  0.42922844  0.37251396  0.88125210    -0.04900
C1700       C  0.42502083  0.40898114  0.87969811    -0.23300
C1701       C  0.39886236  0.42324584  0.85858690     0.13000
C1702       C  0.37658707  0.40121176  0.84080173    -0.12500
N1703       N  0.40997374  0.31347706  0.86811180     0.64700
H1704       H  0.44882356  0.36076125  0.89746670     0.12500
N1705       N  0.39461703  0.46006535  0.85466571     0.61300
H1706       H  0.35674538  0.41250710  0.82447457     0.08700
O1707       O  0.37082886  0.24469513  0.76923203    -0.40100
O1708       O  0.38134375  0.28663207  0.73333112    -0.39300
O1709       O  0.28787192  0.39471507  0.84480068    -0.39300
O1710       O  0.30093848  0.35710782  0.88465685    -0.37000
O1711       O  0.40649412  0.47454443  0.82812610    -0.37900
O1712       O  0.37136120  0.47545768  0.87191327    -0.34100
O1713       O  0.43510928  0.29761189  0.85405939    -0.35500
O1714       O  0.39219265  0.29809532  0.89079874    -0.39800
C1715       C  0.34332437  0.39194821  0.61814535    -0.13500
C1716       C  0.36265644  0.37287227  0.64205609     0.16900
C1717       C  0.39930050  0.37315728  0.64077726     0.03200
C1718       C  0.41624338  0.39104179  0.61455038    -0.12000
C1719       C  0.39707677  0.40851148  0.58921308    -0.03000
C1720       C  0.36028651  0.40993680  0.59174140     0.02400
C1721       C  0.34440147  0.34922301  0.66548480     0.09300
N1722       N  0.41950797  0.35428733  0.66527805     0.65600
H1723       H  0.44455105  0.39042996  0.61365572     0.18600
N1724       N  0.33974549  0.42737797  0.56657369     0.76100
H1725       H  0.31498622  0.39153451  0.61912725     0.10100
C1726       C  0.32777289  0.36147027  0.69491610     0.03800
C1727       C  0.30980026  0.33792681  0.71587255    -0.04900
C1728       C  0.30818647  0.30201139  0.70787597    -0.23300
C1729       C  0.32540304  0.29005496  0.67820773     0.13000
C1730       C  0.34324048  0.31375995  0.65740809    -0.12500
N1731       N  0.32827123  0.39779332  0.70325305     0.64700
H1732       H  0.29570662  0.34813771  0.73762753     0.12500
N1733       N  0.32673071  0.25394467  0.66938089     0.61300
H1734       H  0.35633547  0.30439827  0.63466686     0.08700
O1735       O  0.33103026  0.45887063  0.57100053    -0.40100
O1736       O  0.32461440  0.40968908  0.54402769    -0.39300
O1737       O  0.43371808  0.37046883  0.68940382    -0.39300
O1738       O  0.42747467  0.32274060  0.65995485    -0.37000
O1739       O  0.35458443  0.23740941  0.67541261    -0.37900
O1740       O  0.30721624  0.24318972  0.64588773    -0.34100
O1741       O  0.30339998  0.41736334  0.69409077    -0.35500
O1742       O  0.35529308  0.41104376  0.71614275    -0.39800
loop_ 
_geom_bond_atom_site_label_1 
_geom_bond_atom_site_label_2 
_geom_bond_distance 
_geom_bond_site_symmetry_2 
_ccdc_geom_bond_type 
C1           N19   1.351       .  A
C1           C38   1.451       .  S
C1          C848   1.467       .  S
N2           N19   1.326       .  A
N2           N24   1.318       .  A
N2          Co39   2.085   1_554  S
C3           N28   1.342       .  A
C3           C41   1.459       .  S
C3           H48   1.081       .  S
H4           C45   1.082       .  S
C5           N29   1.341       .  A
C5            C9   1.463       .  S
C5           H34   1.081       .  S
Co6          N24   2.057   1_556  S
Co6          N14   2.076   1_556  S
Co6         N917   2.073       .  S
Co6         N893   2.059       .  S
Co6         Cl50   2.436       .  S
N7           C45   1.338       .  A
N7           N14   1.319       .  A
N7         Co879   2.078       .  S
Co8          N28   2.075       .  S
Co8          N15   2.062       .  S
Co8         N878   2.066       .  S
Co8         N882   2.075       .  S
Co8        Cl921   2.445       .  S
C9           N47   1.349       .  A
C9          C745   1.478       .  S
N10          N17   1.320       .  A
N10          N40   1.323       .  A
N10        Co914   2.091       .  S
N11          N29   1.318       .  A
N11          N47   1.322       .  A
N11        Co879   2.077       .  S
N12          C41   1.346       .  A
N12          N22   1.316       .  A
H13          C38   1.081       .  S
N14          N35   1.322       .  A
N15          N33   1.319       .  A
N15          N20   1.318       .  A
C16          N20   1.343       .  A
C16          C44   1.464       .  S
C16         C717   1.469       .  S
N17          C32   1.341       .  A
N17         Co39   2.079   1_554  S
C18          N46   1.337       .  A
C18          C21   1.461       .  S
C18          H52   1.081       .  S
C21          N42   1.350       .  A
C21         C829   1.471       .  S
N22          N28   1.316       .  A
N22        Co877   2.058       .  S
N23          C49   1.341       .  A
N23          N25   1.317       .  A
N23        Co910   2.080       .  S
N24          C38   1.330       .  A
N25          N53   1.321       .  A
N25         Co43   2.071       .  S
H26          C49   1.080       .  S
H27          C44   1.080       .  S
N29        Co914   2.081       .  S
N30          N42   1.320       .  A
N30          N46   1.317       .  A
N30        Co910   2.074       .  S
C31          N35   1.347       .  A
C31          C45   1.461       .  S
C31         C801   1.470       .  S
C32          C51   1.458       .  S
C32          H36   1.081       .  S
N33          C44   1.344       .  A
N33         Co43   2.087       .  S
C37          N53   1.347       .  A
C37          C49   1.467       .  S
C37         C661   1.479       .  S
Co39        N894   2.081       .  S
Co39        N901   2.074       .  S
Co39        Cl50   2.454       .  S
N40          C51   1.351       .  A
C41         C764   1.466       .  S
Co43        N881   2.089       .  S
Co43        N900   2.083       .  S
Co43       Cl921   2.440       .  S
N46        Co877   2.070       .  S
Cl50       Co879   2.448   1_556  S
Cl50       Co914   2.441   1_556  S
C51         C689   1.474       .  S
C54          N72   1.352       .  A
C54          C91   1.465       .  S
C54         C549   1.485       .  S
N55          N72   1.325       .  A
N55          N77   1.321       .  A
N55         Co92   2.093       .  S
C56          N81   1.349       .  A
C56          C94   1.471       .  S
C56         H101   1.081       .  S
H57          C98   1.081       .  S
C58          N82   1.343       .  A
C58          C62   1.464       .  S
C58          H87   1.082       .  S
Co59         N77   2.096       .  S
Co59         N67   2.088       .  S
Co59         N99   2.091   1_565  S
Co59         N75   2.088   1_565  S
Co59       Cl103   2.456   1_554  S
N60          C98   1.344       .  A
N60          N67   1.321       .  A
N60         Co61   2.096   1_554  S
Co61         N81   2.116   1_566  S
Co61        N935   2.123       .  S
Co61        N939   2.092   1_565  S
Co61       Cl103   2.462       .  S
C62         N100   1.359       .  A
C62         C605   1.499       .  S
N63          N70   1.321       .  A
N63          N93   1.327       .  A
N63         Co96   2.093       .  S
N64          N82   1.324       .  A
N64         N100   1.333       .  A
N64        Co932   2.123       .  S
N65          C94   1.350       .  A
N65          N75   1.324       .  A
H66          C91   1.082       .  S
N67          N88   1.325       .  A
N68          N86   1.320       .  A
N68          N73   1.325       .  A
N68        Co932   2.094   1_545  S
C69          N73   1.354       .  A
C69          C97   1.465       .  S
C69         C521   1.490       .  S
N70          C85   1.341       .  A
N70        Co963   2.091       .  S
C71          N99   1.344       .  A
C71          C74   1.466       .  S
C71         H105   1.081       .  S
C74          N95   1.352       .  A
C74         C456   1.490       .  S
N75          N81   1.322       .  A
N76         C102   1.342       .  A
N76          N78   1.321       .  A
N76        Co963   2.085   1_545  S
N77          C91   1.344       .  A
N78         N106   1.326       .  A
N78         Co96   2.099   1_545  S
H79         C102   1.082       .  S
H80          C97   1.080       .  S
N82         Co96   2.102       .  S
N83          N95   1.325       .  A
N83          N99   1.319       .  A
N83         Co92   2.088   1_545  S
C84          N88   1.351       .  A
C84          C98   1.467       .  S
C84         C633   1.492       .  S
C85         C104   1.464       .  S
C85          H89   1.081       .  S
N86          C97   1.341       .  A
N86         Co96   2.086   1_545  S
C90         N106   1.353       .  A
C90         C102   1.459       .  S
C90         C428   1.484       .  S
Co92        N941   2.091   1_554  S
Co92        N947   2.087   1_564  S
Co92       Cl103   2.454   1_554  S
N93         C104   1.353       .  A
C94         C493   1.490       .  S
Co96       Cl974   2.461       .  S
Cl103      Co967   2.462       .  S
C104        C577   1.493       .  S
C107        N125   1.353       .  A
C107        C144   1.459       .  S
C107        C325   1.477       .  S
N108        N125   1.327       .  A
N108        N130   1.322       .  A
N108       Co145   2.099   1_655  S
C109        N134   1.345       .  A
C109        C147   1.468       .  S
C109        H154   1.082       .  S
H110        C151   1.081       .  S
C111        N135   1.340       .  A
C111        C115   1.464       .  S
C111        H140   1.082       .  S
Co112       N130   2.090   1_455  S
Co112       N120   2.089   1_455  S
Co112       N152   2.092       .  S
Co112       N128   2.110       .  S
Co112      Cl156   2.460   1_554  S
N113        C151   1.339       .  A
N113        N120   1.318       .  A
N113       Co114   2.078   1_654  S
Co114       N134   2.114   1_556  S
Co114       N988   2.109   1_455  S
Co114       N992   2.088       .  S
Co114      Cl156   2.457       .  S
C115        N153   1.354       .  A
C115        C372   1.488       .  S
N116        N123   1.318       .  A
N116        N146   1.328       .  A
N116       Co149   2.096       .  S
N117        N135   1.323       .  A
N117        N153   1.329       .  A
N117       Co985   2.107       .  S
N118        C147   1.356       .  A
N118        N128   1.330       .  A
H119        C144   1.082       .  S
N120        N141   1.326       .  A
N121        N139   1.319       .  A
N121        N126   1.324       .  A
N121       Co985   2.090   1_455  S
C122        N126   1.354       .  A
C122        C150   1.467       .  S
C122        C232   1.495       .  S
N123        C138   1.340       .  A
N123      Co1016   2.085   1_655  S
C124        N152   1.343       .  A
C124        C127   1.469       .  S
C124        H158   1.081       .  S
C127        N148   1.351       .  A
C127        C297   1.494       .  S
N128        N134   1.324       .  A
N129        C155   1.344       .  A
N129        N131   1.322       .  A
N129      Co1016   2.095       .  S
N130        C144   1.339       .  A
N131        N159   1.323       .  A
N131       Co149   2.092   1_455  S
H132        C155   1.081       .  S
H133        C150   1.078       .  S
N135       Co149   2.094       .  S
N136        N148   1.326       .  A
N136        N152   1.320       .  A
N136       Co145   2.086       .  S
C137        N141   1.352       .  A
C137        C151   1.464       .  S
C137        C409   1.489       .  S
C138        C157   1.469       .  S
C138        H142   1.078       .  S
N139        C150   1.341       .  A
N139       Co149   2.082   1_455  S
C143        N159   1.351       .  A
C143        C155   1.466       .  S
C143        C269   1.483       .  S
Co145       N994   2.084   1_454  S
Co145      N1000   2.094   1_554  S
Co145      Cl156   2.455   1_554  S
N146        C157   1.357       .  A
C147        C213   1.498       .  S
Co149     Cl1027   2.455       .  S
Cl156     Co1020   2.458   1_455  S
C157        C353   1.504       .  S
C160        H161   1.103       .  S
C160        C166   1.559       .  S
C160        C165   1.549       .  S
C160        C164   1.541       .  S
C162        H163   1.112       .  S
C162        C168   1.537       .  S
C162        C167   1.535       .  S
C162        C169   1.541       .  S
C164        C167   1.370       .  D
C164        C857   1.486       .  S
C165        C168   1.374       .  D
C165        C288   1.514       .  S
C166        C169   1.390       .  D
C166        C484   1.506       .  S
C167        C820   1.479       .  S
C168        C260   1.491       .  S
C169        C512   1.510       .  S
C170        H171   1.108       .  S
C170        C176   1.538       .  S
C170        C175   1.546       .  S
C170        C174   1.537       .  S
C172        H173   1.101       .  S
C172        C178   1.550       .  S
C172        C177   1.535       .  S
C172        C179   1.543       .  S
C174        C177   1.376       .  D
C174        C792   1.485       .  S
C175        C178   1.385       .  D
C175        C465   1.506       .  S
C176        C179   1.375       .  D
C176        C316   1.491       .  S
C177        C773   1.489       .  S
C178        C437   1.500       .  S
C179        C344   1.509       .  S
C180        H181   1.103       .  S
C180        C186   1.539       .  S
C180        C185   1.553       .  S
C180        C184   1.534       .  S
C182        H183   1.098       .  S
C182        C188   1.527       .  S
C182        C187   1.545       .  S
C182        C189   1.558       .  S
C184        C187   1.384       .  D
C184        C680   1.490       .  S
C185        C188   1.376       .  D
C185        C624   1.484       .  S
C186        C189   1.391       .  D
C186        C204   1.535       .  S
C187        C652   1.508       .  S
C188        C596   1.509       .  S
C189        C241   1.487       .  S
C190        H191   1.108       .  S
C190        C196   1.541       .  S
C190        C195   1.548       .  S
C190        C194   1.543       .  S
C192        H193   1.096       .  S
C192        C198   1.532       .  S
C192        C197   1.545       .  S
C192        C199   1.543       .  S
C194        C197   1.392       .  D
C194        C736   1.498       .  S
C195        C198   1.376       .  D
C195        C400   1.491       .  S
C196        C199   1.385       .  D
C196        C540   1.514       .  S
C197        C708   1.512       .  S
C198        C381   1.500       .  S
C199        C568   1.494       .  S
C200        H210   1.084       .  S
C200        C201   1.403       .  A
C200        C205   1.412       .  A
C201        C206   1.508       .  S
C201        C202   1.409       .  A
C202        C203   1.404       .  A
C202        N207   1.430       .  S
C203        H208   1.076       .  S
C203        C204   1.413       .  A
C204        C205   1.426       .  A
C205        N209   1.428       .  S
C206        C211   1.415       .  A
C206        C215   1.408       .  A
N207        O222   1.262       .  A
N207        O223   1.262       .  A
N209        O220   1.261       .  A
N209        O221   1.263       .  A
C211        C212   1.410       .  A
C211        N216   1.429       .  S
C212        H217   1.083       .  S
C212        C213   1.407       .  A
C213        C214   1.412       .  A
C214        C215   1.409       .  A
C214        N218   1.428       .  S
C215        H219   1.083       .  S
N216        O226   1.262       .  A
N216        O227   1.262       .  A
N218        O224   1.262       .  A
N218        O225   1.262       .  A
C228        H238   1.084       .  S
C228        C229   1.401       .  A
C228        C233   1.403       .  A
C229        C234   1.483       .  S
C229        C230   1.405       .  A
C230        C231   1.401       .  A
C230        N235   1.428       .  S
C231        H236   1.083       .  S
C231        C232   1.409       .  A
C232        C233   1.420       .  A
C233        N237   1.427       .  S
C234        C239   1.406       .  A
C234        C243   1.407       .  A
N235        O250   1.262       .  A
N235        O251   1.262       .  A
N237        O248   1.262       .  A
N237        O249   1.262       .  A
C239        C240   1.394       .  A
C239        N244   1.431       .  S
C240        H245   1.080       .  S
C240        C241   1.401       .  A
C241        C242   1.409       .  A
C242        C243   1.410       .  A
C242        N246   1.427       .  S
C243        H247   1.083       .  S
N244        O254   1.262       .  A
N244        O255   1.262       .  A
N246        O252   1.262       .  A
N246        O253   1.262       .  A
C256        H266   1.084       .  S
C256        C257   1.402       .  A
C256        C261   1.402       .  A
C257        C262   1.484       .  S
C257        C258   1.410       .  A
C258        C259   1.405       .  A
C258        N263   1.430       .  S
C259        H264   1.084       .  S
C259        C260   1.406       .  A
C260        C261   1.408       .  A
C261        N265   1.427       .  S
C262        C267   1.410       .  A
C262        C271   1.402       .  A
N263        O278   1.262       .  A
N263        O279   1.261       .  A
N265        O276   1.261       .  A
N265        O277   1.262       .  A
C267        C268   1.402       .  A
C267        N272   1.430       .  S
C268        H273   1.084       .  S
C268        C269   1.405       .  A
C269        C270   1.411       .  A
C270        C271   1.403       .  A
C270        N274   1.428       .  S
C271        H275   1.084       .  S
N272        O282   1.262       .  A
N272        O283   1.262       .  A
N274        O280   1.262       .  A
N274        O281   1.262       .  A
C284        H294   1.085       .  S
C284        C285   1.390       .  A
C284        C289   1.394       .  A
C285        C290   1.488       .  S
C285        C286   1.411       .  A
C286        C287   1.413       .  A
C286        N291   1.427       .  S
C287        H292   1.083       .  S
C287        C288   1.413       .  A
C288        C289   1.420       .  A
C289        N293   1.421       .  S
C290        C295   1.409       .  A
C290        C299   1.405       .  A
N291        O306   1.262       .  A
N291        O307   1.261       .  A
N293        O304   1.262       .  A
N293        O305   1.261       .  A
C295        C296   1.405       .  A
C295        N300   1.428       .  S
C296        H301   1.082       .  S
C296        C297   1.407       .  A
C297        C298   1.415       .  A
C298        C299   1.404       .  A
C298        N302   1.429       .  S
C299        H303   1.084       .  S
N300        O310   1.262       .  A
N300        O311   1.262       .  A
N302        O308   1.262       .  A
N302        O309   1.262       .  A
C312        H322   1.084       .  S
C312        C313   1.402       .  A
C312        C317   1.404       .  A
C313        C318   1.482       .  S
C313        C314   1.409       .  A
C314        C315   1.404       .  A
C314        N319   1.431       .  S
C315        H320   1.084       .  S
C315        C316   1.406       .  A
C316        C317   1.408       .  A
C317        N321   1.427       .  S
C318        C323   1.409       .  A
C318        C327   1.404       .  A
N319        O334   1.262       .  A
N319        O335   1.261       .  A
N321        O332   1.262       .  A
N321        O333   1.262       .  A
C323        C324   1.400       .  A
C323        N328   1.429       .  S
C324        H329   1.084       .  S
C324        C325   1.403       .  A
C325        C326   1.408       .  A
C326        C327   1.404       .  A
C326        N330   1.428       .  S
C327        H331   1.084       .  S
N328        O338   1.262       .  A
N328        O339   1.261       .  A
N330        O336   1.262       .  A
N330        O337   1.262       .  A
C340        H350   1.085       .  S
C340        C341   1.390       .  A
C340        C345   1.393       .  A
C341        C346   1.482       .  S
C341        C342   1.408       .  A
C342        C343   1.409       .  A
C342        N347   1.427       .  S
C343        H348   1.083       .  S
C343        C344   1.412       .  A
C344        C345   1.421       .  A
C345        N349   1.423       .  S
C346        C351   1.407       .  A
C346        C355   1.398       .  A
N347        O362   1.261       .  A
N347        O363   1.262       .  A
N349        O360   1.262       .  A
N349        O361   1.262       .  A
C351        C352   1.406       .  A
C351        N356   1.429       .  S
C352        H357   1.083       .  S
C352        C353   1.411       .  A
C353        C354   1.421       .  A
C354        C355   1.403       .  A
C354        N358   1.426       .  S
C355        H359   1.084       .  S
N356        O366   1.262       .  A
N356        O367   1.261       .  A
N358        O364   1.262       .  A
N358        O365   1.262       .  A
C368        H378   1.084       .  S
C368        C369   1.404       .  A
C368        C373   1.407       .  A
C369        C374   1.485       .  S
C369        C370   1.406       .  A
C370        C371   1.402       .  A
C370        N375   1.428       .  S
C371        H376   1.083       .  S
C371        C372   1.406       .  A
C372        C373   1.412       .  A
C373        N377   1.429       .  S
C374        C379   1.405       .  A
C374        C383   1.405       .  A
N375        O390   1.262       .  A
N375        O391   1.262       .  A
N377        O388   1.262       .  A
N377        O389   1.262       .  A
C379        C380   1.397       .  A
C379        N384   1.429       .  S
C380        H385   1.077       .  S
C380        C381   1.405       .  A
C381        C382   1.411       .  A
C382        C383   1.410       .  A
C382        N386   1.427       .  S
C383        H387   1.084       .  S
N384        O394   1.262       .  A
N384        O395   1.262       .  A
N386        O392   1.261       .  A
N386        O393   1.261       .  A
C396        H406   1.083       .  S
C396        C397   1.404       .  A
C396        C401   1.404       .  A
C397        C402   1.489       .  S
C397        C398   1.410       .  A
C398        C399   1.398       .  A
C398        N403   1.429       .  S
C399        H404   1.081       .  S
C399        C400   1.403       .  A
C400        C401   1.409       .  A
C401        N405   1.428       .  S
C402        C407   1.411       .  A
C402        C411   1.403       .  A
N403        O418   1.262       .  A
N403        O419   1.261       .  A
N405        O416   1.262       .  A
N405        O417   1.261       .  A
C407        C408   1.400       .  A
C407        N412   1.429       .  S
C408        H413   1.082       .  S
C408        C409   1.406       .  A
C409        C410   1.415       .  A
C410        C411   1.402       .  A
C410        N414   1.429       .  S
C411        H415   1.083       .  S
N412        O422   1.262       .  A
N412        O423   1.262       .  A
N414        O420   1.262       .  A
N414        O421   1.262       .  A
C424        H434   1.084       .  S
C424        C425   1.403       .  A
C424        C429   1.400       .  A
C425        C430   1.491       .  S
C425        C426   1.415       .  A
C426        C427   1.407       .  A
C426        N431   1.429       .  S
C427        H432   1.084       .  S
C427        C428   1.404       .  A
C428        C429   1.410       .  A
C429        N433   1.427       .  S
C430        C435   1.410       .  A
C430        C439   1.398       .  A
N431        O446   1.262       .  A
N431        O447   1.262       .  A
N433        O444   1.261       .  A
N433        O445   1.262       .  A
C435        C436   1.408       .  A
C435        N440   1.429       .  S
C436        H441   1.084       .  S
C436        C437   1.408       .  A
C437        C438   1.422       .  A
C438        C439   1.399       .  A
C438        N442   1.428       .  S
C439        H443   1.085       .  S
N440        O450   1.262       .  A
N440        O451   1.262       .  A
N442        O448   1.261       .  A
N442        O449   1.259       .  A
C452        H462   1.084       .  S
C452        C453   1.405       .  A
C452        C457   1.402       .  A
C453        C458   1.492       .  S
C453        C454   1.410       .  A
C454        C455   1.405       .  A
C454        N459   1.428       .  S
C455        H460   1.084       .  S
C455        C456   1.408       .  A
C456        C457   1.412       .  A
C457        N461   1.428       .  S
C458        C463   1.408       .  A
C458        C467   1.407       .  A
N459        O474   1.262       .  A
N459        O475   1.262       .  A
N461        O472   1.262       .  A
N461        O473   1.262       .  A
C463        C464   1.394       .  A
C463        N468   1.430       .  S
C464        H469   1.080       .  S
C464        C465   1.408       .  A
C465        C466   1.418       .  A
C466        C467   1.413       .  A
C466        N470   1.429       .  S
C467        H471   1.083       .  S
N468        O478   1.262       .  A
N468        O479   1.262       .  A
N470        O476   1.262       .  A
N470        O477   1.262       .  A
C480        H490   1.084       .  S
C480        C481   1.406       .  A
C480        C485   1.407       .  A
C481        C486   1.498       .  S
C481        C482   1.413       .  A
C482        C483   1.405       .  A
C482        N487   1.431       .  S
C483        H488   1.076       .  S
C483        C484   1.407       .  A
C484        C485   1.411       .  A
C485        N489   1.428       .  S
C486        C491   1.413       .  A
C486        C495   1.407       .  A
N487        O502   1.262       .  A
N487        O503   1.262       .  A
N489        O500   1.262       .  A
N489        O501   1.262       .  A
C491        C492   1.405       .  A
C491        N496   1.429       .  S
C492        H497   1.084       .  S
C492        C493   1.405       .  A
C493        C494   1.410       .  A
C494        C495   1.407       .  A
C494        N498   1.428       .  S
C495        H499   1.084       .  S
N496        O506   1.262       .  A
N496        O507   1.262       .  A
N498        O504   1.262       .  A
N498        O505   1.262       .  A
C508        H518   1.083       .  S
C508        C509   1.407       .  A
C508        C513   1.411       .  A
C509        C514   1.489       .  S
C509        C510   1.405       .  A
C510        C511   1.394       .  A
C510        N515   1.430       .  S
C511        H516   1.076       .  S
C511        C512   1.409       .  A
C512        C513   1.415       .  A
C513        N517   1.428       .  S
C514        C519   1.408       .  A
C514        C523   1.403       .  A
N515        O530   1.262       .  A
N515        O531   1.262       .  A
N517        O528   1.262       .  A
N517        O529   1.262       .  A
C519        C520   1.402       .  A
C519        N524   1.428       .  S
C520        H525   1.083       .  S
C520        C521   1.407       .  A
C521        C522   1.415       .  A
C522        C523   1.403       .  A
C522        N526   1.428       .  S
C523        H527   1.084       .  S
N524        O534   1.262       .  A
N524        O535   1.262       .  A
N526        O532   1.262       .  A
N526        O533   1.262       .  A
C536        H546   1.078       .  S
C536        C537   1.405       .  A
C536        C541   1.408       .  A
C537        C542   1.499       .  S
C537        C538   1.408       .  A
C538        C539   1.404       .  A
C538        N543   1.430       .  S
C539        H544   1.031       .  S
C539        C540   1.410       .  A
C540        C541   1.415       .  A
C541        N545   1.427       .  S
C542        C547   1.414       .  A
C542        C551   1.408       .  A
N543        O558   1.262       .  A
N543        O559   1.262       .  A
N545        O556   1.262       .  A
N545        O557   1.261       .  A
C547        C548   1.405       .  A
C547        N552   1.429       .  S
C548        H553   1.084       .  S
C548        C549   1.404       .  A
C549        C550   1.409       .  A
C550        C551   1.404       .  A
C550        N554   1.429       .  S
C551        H555   1.082       .  S
N552        O562   1.262       .  A
N552        O563   1.262       .  A
N554        O560   1.262       .  A
N554        O561   1.262       .  A
C564        H574   1.084       .  S
C564        C565   1.407       .  A
C564        C569   1.411       .  A
C565        C570   1.485       .  S
C565        C566   1.406       .  A
C566        C567   1.396       .  A
C566        N571   1.430       .  S
C567        H572   1.083       .  S
C567        C568   1.403       .  A
C568        C569   1.409       .  A
C569        N573   1.427       .  S
C570        C575   1.407       .  A
C570        C579   1.401       .  A
N571        O586   1.262       .  A
N571        O587   1.262       .  A
N573        O584   1.261       .  A
N573        O585   1.261       .  A
C575        C576   1.404       .  A
C575        N580   1.428       .  S
C576        H581   1.083       .  S
C576        C577   1.407       .  A
C577        C578   1.417       .  A
C578        C579   1.404       .  A
C578        N582   1.428       .  S
C579        H583   1.084       .  S
N580        O590   1.262       .  A
N580        O591   1.262       .  A
N582        O588   1.261       .  A
N582        O589   1.261       .  A
C592        H602   1.083       .  S
C592        C593   1.407       .  A
C592        C597   1.413       .  A
C593        C598   1.502       .  S
C593        C594   1.412       .  A
C594        C595   1.406       .  A
C594        N599   1.429       .  S
C595        H600   1.079       .  S
C595        C596   1.407       .  A
C596        C597   1.412       .  A
C597        N601   1.429       .  S
C598        C603   1.412       .  A
C598        C607   1.407       .  A
N599        O614   1.262       .  A
N599        O615   1.262       .  A
N601        O612   1.262       .  A
N601        O613   1.262       .  A
C603        C604   1.409       .  A
C603        N608   1.429       .  S
C604        H609   1.083       .  S
C604        C605   1.408       .  A
C605        C606   1.413       .  A
C606        C607   1.412       .  A
C606        N610   1.428       .  S
C607        H611   1.084       .  S
N608        O618   1.262       .  A
N608        O619   1.262       .  A
N610        O616   1.262       .  A
N610        O617   1.262       .  A
C620        H630   1.083       .  S
C620        C621   1.407       .  A
C620        C625   1.407       .  A
C621        C626   1.484       .  S
C621        C622   1.408       .  A
C622        C623   1.396       .  A
C622        N627   1.429       .  S
C623        H628   1.081       .  S
C623        C624   1.400       .  A
C624        C625   1.406       .  A
C625        N629   1.428       .  S
C626        C631   1.408       .  A
C626        C635   1.400       .  A
N627        O642   1.262       .  A
N627        O643   1.262       .  A
N629        O640   1.260       .  A
N629        O641   1.261       .  A
C631        C632   1.404       .  A
C631        N636   1.428       .  S
C632        H637   1.083       .  S
C632        C633   1.407       .  A
C633        C634   1.418       .  A
C634        C635   1.402       .  A
C634        N638   1.429       .  S
C635        H639   1.084       .  S
N636        O646   1.262       .  A
N636        O647   1.262       .  A
N638        O644   1.262       .  A
N638        O645   1.262       .  A
C648        H658   1.085       .  S
C648        C649   1.391       .  A
C648        C653   1.395       .  A
C649        C654   1.462       .  S
C649        C650   1.396       .  A
C650        C651   1.397       .  A
C650        N655   1.428       .  S
C651        H656   1.080       .  S
C651        C652   1.417       .  A
C652        C653   1.424       .  A
C653        N657   1.427       .  S
C654        C659   1.402       .  A
C654        C663   1.393       .  A
N655        O670   1.261       .  A
N655        O671   1.261       .  A
N657        O668   1.262       .  A
N657        O669   1.263       .  A
C659        C660   1.398       .  A
C659        N664   1.428       .  S
C660        H665   1.083       .  S
C660        C661   1.409       .  A
C661        C662   1.411       .  A
C662        C663   1.392       .  A
C662        N666   1.421       .  S
C663        H667   1.085       .  S
N664        O674   1.262       .  A
N664        O675   1.262       .  A
N666        O672   1.261       .  A
N666        O673   1.262       .  A
C676        H686   1.084       .  S
C676        C677   1.402       .  A
C676        C681   1.405       .  A
C677        C682   1.475       .  S
C677        C678   1.407       .  A
C678        C679   1.393       .  A
C678        N683   1.431       .  S
C679        H684   1.078       .  S
C679        C680   1.401       .  A
C680        C681   1.412       .  A
C681        N685   1.429       .  S
C682        C687   1.405       .  A
C682        C691   1.402       .  A
N683        O698   1.262       .  A
N683        O699   1.262       .  A
N685        O696   1.261       .  A
N685        O697   1.261       .  A
C687        C688   1.397       .  A
C687        N692   1.427       .  S
C688        H693   1.084       .  S
C688        C689   1.402       .  A
C689        C690   1.412       .  A
C690        C691   1.402       .  A
C690        N694   1.429       .  S
C691        H695   1.084       .  S
N692        O702   1.261       .  A
N692        O703   1.262       .  A
N694        O700   1.262       .  A
N694        O701   1.262       .  A
C704        H714   1.085       .  S
C704        C705   1.391       .  A
C704        C709   1.395       .  A
C705        C710   1.469       .  S
C705        C706   1.399       .  A
C706        C707   1.397       .  A
C706        N711   1.427       .  S
C707        H712   1.080       .  S
C707        C708   1.414       .  A
C708        C709   1.428       .  A
C709        N713   1.427       .  S
C710        C715   1.406       .  A
C710        C719   1.402       .  A
N711        O726   1.261       .  A
N711        O727   1.262       .  A
N713        O724   1.263       .  A
N713        O725   1.261       .  A
C715        C716   1.394       .  A
C715        N720   1.429       .  S
C716        H721   1.084       .  S
C716        C717   1.403       .  A
C717        C718   1.410       .  A
C718        C719   1.398       .  A
C718        N722   1.429       .  S
C719        H723   1.084       .  S
N720        O730   1.262       .  A
N720        O731   1.262       .  A
N722        O728   1.262       .  A
N722        O729   1.262       .  A
C732        H742   1.084       .  S
C732        C733   1.401       .  A
C732        C737   1.404       .  A
C733        C738   1.479       .  S
C733        C734   1.406       .  A
C734        C735   1.399       .  A
C734        N739   1.430       .  S
C735        H740   1.079       .  S
C735        C736   1.406       .  A
C736        C737   1.414       .  A
C737        N741   1.427       .  S
C738        C743   1.407       .  A
C738        C747   1.401       .  A
N739        O754   1.262       .  A
N739        O755   1.261       .  A
N741        O752   1.262       .  A
N741        O753   1.261       .  A
C743        C744   1.399       .  A
C743        N748   1.427       .  S
C744        H749   1.084       .  S
C744        C745   1.403       .  A
C745        C746   1.414       .  A
C746        C747   1.401       .  A
C746        N750   1.429       .  S
C747        H751   1.084       .  S
N748        O758   1.261       .  A
N748        O759   1.262       .  A
N750        O756   1.262       .  A
N750        O757   1.262       .  A
C760        H770   1.084       .  S
C760        C761   1.402       .  A
C760        C765   1.400       .  A
C761        C766   1.462       .  S
C761        C762   1.401       .  A
C762        C763   1.388       .  A
C762        N767   1.429       .  S
C763        H768   1.084       .  S
C763        C764   1.403       .  A
C764        C765   1.412       .  A
C765        N769   1.429       .  S
C766        C771   1.399       .  A
C766        C775   1.396       .  A
N767        O782   1.262       .  A
N767        O783   1.262       .  A
N769        O780   1.262       .  A
N769        O781   1.262       .  A
C771        C772   1.395       .  A
C771        N776   1.429       .  S
C772        H777   1.083       .  S
C772        C773   1.411       .  A
C773        C774   1.417       .  A
C774        C775   1.394       .  A
C774        N778   1.430       .  S
C775        H779   1.084       .  S
N776        O786   1.262       .  A
N776        O787   1.262       .  A
N778        O784   1.262       .  A
N778        O785   1.261       .  A
C788        H798   1.085       .  S
C788        C789   1.399       .  A
C788        C793   1.397       .  A
C789        C794   1.464       .  S
C789        C790   1.399       .  A
C790        C791   1.392       .  A
C790        N795   1.428       .  S
C791        H796   1.076       .  S
C791        C792   1.404       .  A
C792        C793   1.409       .  A
C793        N797   1.426       .  S
C794        C799   1.405       .  A
C794        C803   1.397       .  A
N795        O810   1.262       .  A
N795        O811   1.262       .  A
N797        O808   1.261       .  A
N797        O809   1.262       .  A
C799        C800   1.395       .  A
C799        N804   1.429       .  S
C800        H805   1.084       .  S
C800        C801   1.402       .  A
C801        C802   1.414       .  A
C802        C803   1.396       .  A
C802        N806   1.429       .  S
C803        H807   1.084       .  S
N804        O814   1.262       .  A
N804        O815   1.262       .  A
N806        O812   1.262       .  A
N806        O813   1.262       .  A
C816        H826   1.084       .  S
C816        C817   1.394       .  A
C816        C821   1.391       .  A
C817        C822   1.466       .  S
C817        C818   1.408       .  A
C818        C819   1.395       .  A
C818        N823   1.429       .  S
C819        H824   1.083       .  S
C819        C820   1.400       .  A
C820        C821   1.417       .  A
C821        N825   1.428       .  S
C822        C827   1.407       .  A
C822        C831   1.395       .  A
N823        O838   1.262       .  A
N823        O839   1.262       .  A
N825        O836   1.260       .  A
N825        O837   1.262       .  A
C827        C828   1.396       .  A
C827        N832   1.429       .  S
C828        H833   1.082       .  S
C828        C829   1.404       .  A
C829        C830   1.408       .  A
C830        C831   1.391       .  A
C830        N834   1.422       .  S
C831        H835   1.084       .  S
N832        O842   1.262       .  A
N832        O843   1.262       .  A
N834        O840   1.260       .  A
N834        O841   1.261       .  A
C844        H854   1.084       .  S
C844        C845   1.401       .  A
C844        C849   1.400       .  A
C845        C850   1.461       .  S
C845        C846   1.401       .  A
C846        C847   1.389       .  A
C846        N851   1.430       .  S
C847        H852   1.083       .  S
C847        C848   1.404       .  A
C848        C849   1.409       .  A
C849        N853   1.429       .  S
C850        C855   1.399       .  A
C850        C859   1.396       .  A
N851        O866   1.262       .  A
N851        O867   1.262       .  A
N853        O864   1.262       .  A
N853        O865   1.262       .  A
C855        C856   1.395       .  A
C855        N860   1.429       .  S
C856        H861   1.083       .  S
C856        C857   1.411       .  A
C857        C858   1.412       .  A
C858        C859   1.394       .  A
C858        N862   1.427       .  S
C859        H863   1.084       .  S
N860        O870   1.262       .  A
N860        O871   1.262       .  A
N862        O868   1.261       .  A
N862        O869   1.262       .  A
C872        N890   1.351       .  A
C872        C909   1.453       .  S
C872       C1719   1.471       .  S
N873        N890   1.326       .  A
N873        N895   1.318       .  A
N873       Co910   2.085       .  S
C874        N899   1.343       .  A
C874        C912   1.460       .  S
C874        H919   1.080       .  S
H875        C916   1.082       .  S
C876        N900   1.342       .  A
C876        C880   1.464       .  S
C876        H905   1.081       .  S
Co877       N895   2.059       .  S
Co877       N885   2.068       .  S
Co877      Cl921   2.437       .  S
N878        C916   1.335       .  A
N878        N885   1.319       .  A
Co879       N899   2.076   1_554  S
Co879       N886   2.069   1_554  S
C880        N918   1.349       .  A
C880       C1616   1.480       .  S
N881        N888   1.320       .  A
N881        N911   1.322       .  A
N882        N900   1.318       .  A
N882        N918   1.322       .  A
N883        C912   1.347       .  A
N883        N893   1.317       .  A
H884        C909   1.081       .  S
N885        N906   1.321       .  A
N886        N904   1.319       .  A
N886        N891   1.319       .  A
C887        N891   1.345       .  A
C887        C915   1.462       .  S
C887       C1588   1.470       .  S
N888        C903   1.339       .  A
N888       Co910   2.073       .  S
C889        N917   1.337       .  A
C889        C892   1.463       .  S
C889        H923   1.081       .  S
C892        N913   1.349       .  A
C892       C1700   1.474       .  S
N893        N899   1.316       .  A
N894        C920   1.342       .  A
N894        N896   1.317       .  A
N895        C909   1.332       .  A
N896        N924   1.322       .  A
N896       Co914   2.073   1_556  S
H897        C920   1.080       .  S
H898        C915   1.079       .  S
N901        N913   1.320       .  A
N901        N917   1.317       .  A
C902        N906   1.345       .  A
C902        C916   1.457       .  S
C902       C1672   1.461       .  S
C903        C922   1.456       .  S
C903        H907   1.081       .  S
N904        C915   1.342       .  A
N904       Co914   2.085   1_556  S
C908        N924   1.348       .  A
C908        C920   1.467       .  S
C908       C1532   1.480       .  S
Co910      Cl921   2.451       .  S
N911        C922   1.351       .  A
C912       C1635   1.469       .  S
C922       C1560   1.470       .  S
C925        N943   1.351       .  A
C925        C962   1.465       .  S
C925       C1420   1.483       .  S
N926        N943   1.325       .  A
N926        N948   1.321       .  A
N926       Co963   2.091       .  S
C927        N952   1.350       .  A
C927        C965   1.472       .  S
C927        H972   1.081       .  S
H928        C969   1.081       .  S
C929        N953   1.343       .  A
C929        C933   1.464       .  S
C929        H958   1.082       .  S
Co930       N948   2.097       .  S
Co930       N938   2.086       .  S
Co930       N970   2.091   1_565  S
Co930       N946   2.090   1_565  S
Co930      Cl974   2.458       .  S
N931        C969   1.342       .  A
N931        N938   1.321       .  A
N931       Co932   2.096       .  S
Co932       N952   2.118   1_565  S
Co932      Cl974   2.461       .  S
C933        N971   1.359       .  A
C933       C1476   1.499       .  S
N934        N941   1.321       .  A
N934        N964   1.327       .  A
N934       Co967   2.092       .  S
N935        N953   1.324       .  A
N935        N971   1.333       .  A
N936        C965   1.351       .  A
N936        N946   1.325       .  A
H937        C962   1.082       .  S
N938        N959   1.325       .  A
N939        N957   1.320       .  A
N939        N944   1.324       .  A
C940        N944   1.353       .  A
C940        C968   1.466       .  S
C940       C1392   1.489       .  S
N941        C956   1.341       .  A
C942        N970   1.344       .  A
C942        C945   1.467       .  S
C942        H976   1.080       .  S
C945        N966   1.353       .  A
C945       C1327   1.491       .  S
N946        N952   1.322       .  A
N947        C973   1.342       .  A
N947        N949   1.322       .  A
N948        C962   1.344       .  A
N949        N977   1.327       .  A
N949       Co967   2.100   1_545  S
H950        C973   1.082       .  S
H951        C968   1.080       .  S
N953       Co967   2.104       .  S
N954        N966   1.325       .  A
N954        N970   1.318       .  A
N954       Co963   2.088   1_545  S
C955        N959   1.350       .  A
C955        C969   1.467       .  S
C955       C1504   1.492       .  S
C956        C975   1.463       .  S
C956        H960   1.081       .  S
N957        C968   1.342       .  A
N957       Co967   2.086   1_545  S
C961        N977   1.354       .  A
C961        C973   1.459       .  S
C961       C1299   1.484       .  S
Co963      Cl974   2.454       .  S
N964        C975   1.353       .  A
C965       C1364   1.492       .  S
C975       C1448   1.492       .  S
C978        N996   1.351       .  A
C978       C1015   1.461       .  S
C978       C1196   1.475       .  S
N979        N996   1.325       .  A
N979       N1001   1.322       .  A
N979      Co1016   2.094   1_655  S
C980       N1005   1.346       .  A
C980       C1018   1.468       .  S
C980       H1025   1.082       .  S
H981       C1022   1.081       .  S
C982       N1006   1.340       .  A
C982        C986   1.462       .  S
C982       H1011   1.082       .  S
Co983      N1001   2.096   1_455  S
Co983       N991   2.085   1_455  S
Co983      N1023   2.090       .  S
Co983       N999   2.111       .  S
Co983     Cl1027   2.455   1_455  S
N984       C1022   1.340       .  A
N984        N991   1.318       .  A
N984       Co985   2.081       .  S
Co985      N1005   2.114   1_655  S
Co985     Cl1027   2.458       .  S
C986       N1024   1.354       .  A
C986       C1243   1.486       .  S
N987        N994   1.318       .  A
N987       N1017   1.328       .  A
N987      Co1020   2.097       .  S
N988       N1006   1.323       .  A
N988       N1024   1.329       .  A
N989       C1018   1.356       .  A
N989        N999   1.330       .  A
H990       C1015   1.082       .  S
N991       N1012   1.326       .  A
N992       N1010   1.320       .  A
N992        N997   1.325       .  A
C993        N997   1.352       .  A
C993       C1021   1.465       .  S
C993       C1103   1.491       .  S
N994       C1009   1.341       .  A
C995       N1023   1.341       .  A
C995        C998   1.468       .  S
C995       H1029   1.081       .  S
C998       N1019   1.351       .  A
C998       C1168   1.495       .  S
N999       N1005   1.324       .  A
N1000      C1026   1.343       .  A
N1000      N1002   1.322       .  A
N1001      C1015   1.342       .  A
N1002      N1030   1.324       .  A
N1002     Co1020   2.094   1_455  S
H1003      C1026   1.081       .  S
H1004      C1021   1.080       .  S
N1006     Co1020   2.091       .  S
N1007      N1019   1.326       .  A
N1007      N1023   1.319       .  A
N1007     Co1016   2.083       .  S
C1008      N1012   1.352       .  A
C1008      C1022   1.465       .  S
C1008      C1280   1.491       .  S
C1009      C1028   1.469       .  S
C1009      H1013   1.078       .  S
N1010      C1021   1.342       .  A
N1010     Co1020   2.087   1_455  S
C1014      N1030   1.352       .  A
C1014      C1026   1.464       .  S
C1014      C1140   1.482       .  S
Co1016    Cl1027   2.458   1_455  S
N1017      C1028   1.357       .  A
C1018      C1084   1.500       .  S
C1028      C1224   1.503       .  S
C1031      H1032   1.102       .  S
C1031      C1037   1.559       .  S
C1031      C1036   1.550       .  S
C1031      C1035   1.541       .  S
C1033      H1034   1.112       .  S
C1033      C1039   1.534       .  S
C1033      C1038   1.536       .  S
C1033      C1040   1.540       .  S
C1035      C1038   1.372       .  D
C1035      C1728   1.489       .  S
C1036      C1039   1.374       .  D
C1036      C1159   1.512       .  S
C1037      C1040   1.390       .  D
C1037      C1355   1.507       .  S
C1038      C1691   1.480       .  S
C1039      C1131   1.491       .  S
C1040      C1383   1.508       .  S
C1041      H1042   1.108       .  S
C1041      C1047   1.535       .  S
C1041      C1046   1.543       .  S
C1041      C1045   1.529       .  S
C1043      H1044   1.099       .  S
C1043      C1049   1.552       .  S
C1043      C1048   1.535       .  S
C1043      C1050   1.548       .  S
C1045      C1048   1.371       .  D
C1045      C1663   1.473       .  S
C1046      C1049   1.384       .  D
C1046      C1336   1.505       .  S
C1047      C1050   1.384       .  D
C1047      C1187   1.497       .  S
C1048      C1644   1.489       .  S
C1049      C1308   1.502       .  S
C1050      C1215   1.515       .  S
C1051      H1052   1.103       .  S
C1051      C1057   1.539       .  S
C1051      C1056   1.553       .  S
C1051      C1055   1.534       .  S
C1053      H1054   1.100       .  S
C1053      C1059   1.527       .  S
C1053      C1058   1.545       .  S
C1053      C1060   1.558       .  S
C1055      C1058   1.382       .  D
C1055      C1551   1.487       .  S
C1056      C1059   1.376       .  D
C1056      C1495   1.484       .  S
C1057      C1060   1.390       .  D
C1057      C1075   1.535       .  S
C1058      C1523   1.508       .  S
C1059      C1467   1.509       .  S
C1060      C1112   1.486       .  S
C1061      H1062   1.109       .  S
C1061      C1067   1.542       .  S
C1061      C1066   1.548       .  S
C1061      C1065   1.545       .  S
C1063      H1064   1.095       .  S
C1063      C1069   1.533       .  S
C1063      C1068   1.545       .  S
C1063      C1070   1.543       .  S
C1065      C1068   1.393       .  D
C1065      C1607   1.498       .  S
C1066      C1069   1.375       .  D
C1066      C1271   1.492       .  S
C1067      C1070   1.384       .  D
C1067      C1411   1.513       .  S
C1068      C1579   1.514       .  S
C1069      C1252   1.499       .  S
C1070      C1439   1.494       .  S
C1071      H1081   1.083       .  S
C1071      C1072   1.405       .  A
C1071      C1076   1.413       .  A
C1072      C1077   1.512       .  S
C1072      C1073   1.411       .  A
C1073      C1074   1.406       .  A
C1073      N1078   1.430       .  S
C1074      H1079   1.072       .  S
C1074      C1075   1.413       .  A
C1075      C1076   1.425       .  A
C1076      N1080   1.428       .  S
C1077      C1082   1.417       .  A
C1077      C1086   1.410       .  A
N1078      O1093   1.262       .  A
N1078      O1094   1.262       .  A
N1080      O1091   1.261       .  A
N1080      O1092   1.263       .  A
C1082      C1083   1.410       .  A
C1082      N1087   1.429       .  S
C1083      H1088   1.083       .  S
C1083      C1084   1.407       .  A
C1084      C1085   1.412       .  A
C1085      C1086   1.410       .  A
C1085      N1089   1.428       .  S
C1086      H1090   1.083       .  S
N1087      O1097   1.262       .  A
N1087      O1098   1.262       .  A
N1089      O1095   1.262       .  A
N1089      O1096   1.262       .  A
C1099      H1109   1.084       .  S
C1099      C1100   1.400       .  A
C1099      C1104   1.404       .  A
C1100      C1105   1.480       .  S
C1100      C1101   1.406       .  A
C1101      C1102   1.401       .  A
C1101      N1106   1.428       .  S
C1102      H1107   1.084       .  S
C1102      C1103   1.406       .  A
C1103      C1104   1.418       .  A
C1104      N1108   1.429       .  S
C1105      C1110   1.405       .  A
C1105      C1114   1.407       .  A
N1106      O1121   1.262       .  A
N1106      O1122   1.262       .  A
N1108      O1119   1.262       .  A
N1108      O1120   1.262       .  A
C1110      C1111   1.394       .  A
C1110      N1115   1.431       .  S
C1111      H1116   1.079       .  S
C1111      C1112   1.400       .  A
C1112      C1113   1.408       .  A
C1113      C1114   1.410       .  A
C1113      N1117   1.428       .  S
C1114      H1118   1.083       .  S
N1115      O1125   1.262       .  A
N1115      O1126   1.262       .  A
N1117      O1123   1.262       .  A
N1117      O1124   1.262       .  A
C1127      H1137   1.084       .  S
C1127      C1128   1.402       .  A
C1127      C1132   1.403       .  A
C1128      C1133   1.485       .  S
C1128      C1129   1.410       .  A
C1129      C1130   1.405       .  A
C1129      N1134   1.430       .  S
C1130      H1135   1.084       .  S
C1130      C1131   1.406       .  A
C1131      C1132   1.409       .  A
C1132      N1136   1.427       .  S
C1133      C1138   1.409       .  A
C1133      C1142   1.402       .  A
N1134      O1149   1.262       .  A
N1134      O1150   1.261       .  A
N1136      O1147   1.261       .  A
N1136      O1148   1.262       .  A
C1138      C1139   1.401       .  A
C1138      N1143   1.429       .  S
C1139      H1144   1.084       .  S
C1139      C1140   1.405       .  A
C1140      C1141   1.411       .  A
C1141      C1142   1.403       .  A
C1141      N1145   1.428       .  S
C1142      H1146   1.084       .  S
N1143      O1153   1.262       .  A
N1143      O1154   1.262       .  A
N1145      O1151   1.262       .  A
N1145      O1152   1.262       .  A
C1155      H1165   1.085       .  S
C1155      C1156   1.390       .  A
C1155      C1160   1.394       .  A
C1156      C1161   1.485       .  S
C1156      C1157   1.409       .  A
C1157      C1158   1.412       .  A
C1157      N1162   1.427       .  S
C1158      H1163   1.083       .  S
C1158      C1159   1.413       .  A
C1159      C1160   1.420       .  A
C1160      N1164   1.421       .  S
C1161      C1166   1.408       .  A
C1161      C1170   1.404       .  A
N1162      O1177   1.261       .  A
N1162      O1178   1.261       .  A
N1164      O1175   1.262       .  A
N1164      O1176   1.262       .  A
C1166      C1167   1.403       .  A
C1166      N1171   1.428       .  S
C1167      H1172   1.081       .  S
C1167      C1168   1.408       .  A
C1168      C1169   1.416       .  A
C1169      C1170   1.404       .  A
C1169      N1173   1.429       .  S
C1170      H1174   1.084       .  S
N1171      O1181   1.262       .  A
N1171      O1182   1.261       .  A
N1173      O1179   1.262       .  A
N1173      O1180   1.262       .  A
C1183      H1193   1.084       .  S
C1183      C1184   1.402       .  A
C1183      C1188   1.403       .  A
C1184      C1189   1.488       .  S
C1184      C1185   1.410       .  A
C1185      C1186   1.405       .  A
C1185      N1190   1.432       .  S
C1186      H1191   1.083       .  S
C1186      C1187   1.408       .  A
C1187      C1188   1.413       .  A
C1188      N1192   1.430       .  S
C1189      C1194   1.410       .  A
C1189      C1198   1.406       .  A
N1190      O1205   1.262       .  A
N1190      O1206   1.262       .  A
N1192      O1203   1.262       .  A
N1192      O1204   1.261       .  A
C1194      C1195   1.401       .  A
C1194      N1199   1.428       .  S
C1195      H1200   1.084       .  S
C1195      C1196   1.402       .  A
C1196      C1197   1.408       .  A
C1197      C1198   1.403       .  A
C1197      N1201   1.429       .  S
C1198      H1202   1.084       .  S
N1199      O1209   1.262       .  A
N1199      O1210   1.262       .  A
N1201      O1207   1.262       .  A
N1201      O1208   1.262       .  A
C1211      H1221   1.085       .  S
C1211      C1212   1.388       .  A
C1211      C1216   1.394       .  A
C1212      C1217   1.483       .  S
C1212      C1213   1.407       .  A
C1213      C1214   1.410       .  A
C1213      N1218   1.427       .  S
C1214      H1219   1.083       .  S
C1214      C1215   1.413       .  A
C1215      C1216   1.426       .  A
C1216      N1220   1.424       .  S
C1217      C1222   1.408       .  A
C1217      C1226   1.397       .  A
N1218      O1233   1.261       .  A
N1218      O1234   1.262       .  A
N1220      O1231   1.262       .  A
N1220      O1232   1.262       .  A
C1222      C1223   1.406       .  A
C1222      N1227   1.429       .  S
C1223      H1228   1.083       .  S
C1223      C1224   1.410       .  A
C1224      C1225   1.422       .  A
C1225      C1226   1.404       .  A
C1225      N1229   1.426       .  S
C1226      H1230   1.084       .  S
N1227      O1237   1.262       .  A
N1227      O1238   1.261       .  A
N1229      O1235   1.262       .  A
N1229      O1236   1.262       .  A
C1239      H1249   1.084       .  S
C1239      C1240   1.404       .  A
C1239      C1244   1.406       .  A
C1240      C1245   1.485       .  S
C1240      C1241   1.407       .  A
C1241      C1242   1.403       .  A
C1241      N1246   1.428       .  S
C1242      H1247   1.084       .  S
C1242      C1243   1.406       .  A
C1243      C1244   1.411       .  A
C1244      N1248   1.428       .  S
C1245      C1250   1.405       .  A
C1245      C1254   1.405       .  A
N1246      O1261   1.262       .  A
N1246      O1262   1.262       .  A
N1248      O1259   1.262       .  A
N1248      O1260   1.262       .  A
C1250      C1251   1.396       .  A
C1250      N1255   1.429       .  S
C1251      H1256   1.077       .  S
C1251      C1252   1.405       .  A
C1252      C1253   1.411       .  A
C1253      C1254   1.410       .  A
C1253      N1257   1.428       .  S
C1254      H1258   1.084       .  S
N1255      O1265   1.262       .  A
N1255      O1266   1.262       .  A
N1257      O1263   1.262       .  A
N1257      O1264   1.262       .  A
C1267      H1277   1.083       .  S
C1267      C1268   1.405       .  A
C1267      C1272   1.404       .  A
C1268      C1273   1.493       .  S
C1268      C1269   1.412       .  A
C1269      C1270   1.399       .  A
C1269      N1274   1.429       .  S
C1270      H1275   1.081       .  S
C1270      C1271   1.403       .  A
C1271      C1272   1.410       .  A
C1272      N1276   1.429       .  S
C1273      C1278   1.413       .  A
C1273      C1282   1.404       .  A
N1274      O1289   1.262       .  A
N1274      O1290   1.261       .  A
N1276      O1287   1.262       .  A
N1276      O1288   1.261       .  A
C1278      C1279   1.400       .  A
C1278      N1283   1.429       .  S
C1279      H1284   1.082       .  S
C1279      C1280   1.405       .  A
C1280      C1281   1.416       .  A
C1281      C1282   1.403       .  A
C1281      N1285   1.429       .  S
C1282      H1286   1.083       .  S
N1283      O1293   1.262       .  A
N1283      O1294   1.262       .  A
N1285      O1291   1.262       .  A
N1285      O1292   1.262       .  A
C1295      H1305   1.084       .  S
C1295      C1296   1.403       .  A
C1295      C1300   1.400       .  A
C1296      C1301   1.492       .  S
C1296      C1297   1.415       .  A
C1297      C1298   1.407       .  A
C1297      N1302   1.429       .  S
C1298      H1303   1.084       .  S
C1298      C1299   1.404       .  A
C1299      C1300   1.410       .  A
C1300      N1304   1.427       .  S
C1301      C1306   1.411       .  A
C1301      C1310   1.398       .  A
N1302      O1317   1.262       .  A
N1302      O1318   1.262       .  A
N1304      O1315   1.261       .  A
N1304      O1316   1.262       .  A
C1306      C1307   1.407       .  A
C1306      N1311   1.429       .  S
C1307      H1312   1.084       .  S
C1307      C1308   1.408       .  A
C1308      C1309   1.422       .  A
C1309      C1310   1.400       .  A
C1309      N1313   1.428       .  S
C1310      H1314   1.084       .  S
N1311      O1321   1.262       .  A
N1311      O1322   1.262       .  A
N1313      O1319   1.261       .  A
N1313      O1320   1.259       .  A
C1323      H1333   1.084       .  S
C1323      C1324   1.404       .  A
C1323      C1328   1.403       .  A
C1324      C1329   1.489       .  S
C1324      C1325   1.408       .  A
C1325      C1326   1.404       .  A
C1325      N1330   1.428       .  S
C1326      H1331   1.083       .  S
C1326      C1327   1.408       .  A
C1327      C1328   1.414       .  A
C1328      N1332   1.428       .  S
C1329      C1334   1.406       .  A
C1329      C1338   1.406       .  A
N1330      O1345   1.262       .  A
N1330      O1346   1.262       .  A
N1332      O1343   1.262       .  A
N1332      O1344   1.262       .  A
C1334      C1335   1.395       .  A
C1334      N1339   1.430       .  S
C1335      H1340   1.080       .  S
C1335      C1336   1.409       .  A
C1336      C1337   1.417       .  A
C1337      C1338   1.412       .  A
C1337      N1341   1.428       .  S
C1338      H1342   1.083       .  S
N1339      O1349   1.262       .  A
N1339      O1350   1.262       .  A
N1341      O1347   1.262       .  A
N1341      O1348   1.262       .  A
C1351      H1361   1.084       .  S
C1351      C1352   1.407       .  A
C1351      C1356   1.408       .  A
C1352      C1357   1.501       .  S
C1352      C1353   1.414       .  A
C1353      C1354   1.406       .  A
C1353      N1358   1.431       .  S
C1354      H1359   1.076       .  S
C1354      C1355   1.407       .  A
C1355      C1356   1.411       .  A
C1356      N1360   1.428       .  S
C1357      C1362   1.414       .  A
C1357      C1366   1.408       .  A
N1358      O1373   1.262       .  A
N1358      O1374   1.262       .  A
N1360      O1371   1.262       .  A
N1360      O1372   1.262       .  A
C1362      C1363   1.406       .  A
C1362      N1367   1.429       .  S
C1363      H1368   1.084       .  S
C1363      C1364   1.406       .  A
C1364      C1365   1.410       .  A
C1365      C1366   1.408       .  A
C1365      N1369   1.428       .  S
C1366      H1370   1.084       .  S
N1367      O1377   1.262       .  A
N1367      O1378   1.262       .  A
N1369      O1375   1.262       .  A
N1369      O1376   1.262       .  A
C1379      H1389   1.083       .  S
C1379      C1380   1.407       .  A
C1379      C1384   1.411       .  A
C1380      C1385   1.487       .  S
C1380      C1381   1.405       .  A
C1381      C1382   1.392       .  A
C1381      N1386   1.430       .  S
C1382      H1387   1.077       .  S
C1382      C1383   1.409       .  A
C1383      C1384   1.414       .  A
C1384      N1388   1.428       .  S
C1385      C1390   1.408       .  A
C1385      C1394   1.403       .  A
N1386      O1401   1.262       .  A
N1386      O1402   1.262       .  A
N1388      O1399   1.262       .  A
N1388      O1400   1.262       .  A
C1390      C1391   1.401       .  A
C1390      N1395   1.428       .  S
C1391      H1396   1.083       .  S
C1391      C1392   1.407       .  A
C1392      C1393   1.415       .  A
C1393      C1394   1.403       .  A
C1393      N1397   1.428       .  S
C1394      H1398   1.084       .  S
N1395      O1405   1.262       .  A
N1395      O1406   1.262       .  A
N1397      O1403   1.262       .  A
N1397      O1404   1.262       .  A
C1407      H1417   1.088       .  S
C1407      C1408   1.404       .  A
C1407      C1412   1.407       .  A
C1408      C1413   1.497       .  S
C1408      C1409   1.410       .  A
C1409      C1410   1.396       .  A
C1409      N1414   1.430       .  S
C1410      H1415   1.107       .  S
C1410      C1411   1.403       .  A
C1411      C1412   1.418       .  A
C1412      N1416   1.427       .  S
C1413      C1418   1.413       .  A
C1413      C1422   1.408       .  A
N1414      O1429   1.262       .  A
N1414      O1430   1.262       .  A
N1416      O1427   1.262       .  A
N1416      O1428   1.261       .  A
C1418      C1419   1.404       .  A
C1418      N1423   1.429       .  S
C1419      H1424   1.084       .  S
C1419      C1420   1.404       .  A
C1420      C1421   1.409       .  A
C1421      C1422   1.404       .  A
C1421      N1425   1.429       .  S
C1422      H1426   1.083       .  S
N1423      O1433   1.262       .  A
N1423      O1434   1.262       .  A
N1425      O1431   1.262       .  A
N1425      O1432   1.262       .  A
C1435      H1445   1.083       .  S
C1435      C1436   1.407       .  A
C1435      C1440   1.411       .  A
C1436      C1441   1.484       .  S
C1436      C1437   1.405       .  A
C1437      C1438   1.397       .  A
C1437      N1442   1.429       .  S
C1438      H1443   1.078       .  S
C1438      C1439   1.404       .  A
C1439      C1440   1.409       .  A
C1440      N1444   1.427       .  S
C1441      C1446   1.407       .  A
C1441      C1450   1.401       .  A
N1442      O1457   1.262       .  A
N1442      O1458   1.261       .  A
N1444      O1455   1.262       .  A
N1444      O1456   1.262       .  A
C1446      C1447   1.403       .  A
C1446      N1451   1.428       .  S
C1447      H1452   1.083       .  S
C1447      C1448   1.407       .  A
C1448      C1449   1.417       .  A
C1449      C1450   1.405       .  A
C1449      N1453   1.428       .  S
C1450      H1454   1.084       .  S
N1451      O1461   1.262       .  A
N1451      O1462   1.262       .  A
N1453      O1459   1.262       .  A
N1453      O1460   1.262       .  A
C1463      H1473   1.083       .  S
C1463      C1464   1.407       .  A
C1463      C1468   1.413       .  A
C1464      C1469   1.502       .  S
C1464      C1465   1.412       .  A
C1465      C1466   1.406       .  A
C1465      N1470   1.429       .  S
C1466      H1471   1.079       .  S
C1466      C1467   1.406       .  A
C1467      C1468   1.412       .  A
C1468      N1472   1.429       .  S
C1469      C1474   1.413       .  A
C1469      C1478   1.407       .  A
N1470      O1485   1.262       .  A
N1470      O1486   1.262       .  A
N1472      O1483   1.261       .  A
N1472      O1484   1.262       .  A
C1474      C1475   1.409       .  A
C1474      N1479   1.429       .  S
C1475      H1480   1.084       .  S
C1475      C1476   1.407       .  A
C1476      C1477   1.413       .  A
C1477      C1478   1.412       .  A
C1477      N1481   1.428       .  S
C1478      H1482   1.084       .  S
N1479      O1489   1.262       .  A
N1479      O1490   1.262       .  A
N1481      O1487   1.262       .  A
N1481      O1488   1.262       .  A
C1491      H1501   1.083       .  S
C1491      C1492   1.407       .  A
C1491      C1496   1.406       .  A
C1492      C1497   1.484       .  S
C1492      C1493   1.408       .  A
C1493      C1494   1.396       .  A
C1493      N1498   1.429       .  S
C1494      H1499   1.081       .  S
C1494      C1495   1.401       .  A
C1495      C1496   1.405       .  A
C1496      N1500   1.427       .  S
C1497      C1502   1.407       .  A
C1497      C1506   1.401       .  A
N1498      O1513   1.262       .  A
N1498      O1514   1.262       .  A
N1500      O1511   1.260       .  A
N1500      O1512   1.261       .  A
C1502      C1503   1.402       .  A
C1502      N1507   1.428       .  S
C1503      H1508   1.082       .  S
C1503      C1504   1.406       .  A
C1504      C1505   1.418       .  A
C1505      C1506   1.403       .  A
C1505      N1509   1.429       .  S
C1506      H1510   1.084       .  S
N1507      O1517   1.262       .  A
N1507      O1518   1.262       .  A
N1509      O1515   1.262       .  A
N1509      O1516   1.262       .  A
C1519      H1529   1.085       .  S
C1519      C1520   1.392       .  A
C1519      C1524   1.395       .  A
C1520      C1525   1.465       .  S
C1520      C1521   1.397       .  A
C1521      C1522   1.398       .  A
C1521      N1526   1.428       .  S
C1522      H1527   1.080       .  S
C1522      C1523   1.418       .  A
C1523      C1524   1.422       .  A
C1524      N1528   1.427       .  S
C1525      C1530   1.402       .  A
C1525      C1534   1.395       .  A
N1526      O1541   1.261       .  A
N1526      O1542   1.261       .  A
N1528      O1539   1.262       .  A
N1528      O1540   1.262       .  A
C1530      C1531   1.399       .  A
C1530      N1535   1.428       .  S
C1531      H1536   1.083       .  S
C1531      C1532   1.409       .  A
C1532      C1533   1.411       .  A
C1533      C1534   1.394       .  A
C1533      N1537   1.424       .  S
C1534      H1538   1.085       .  S
N1535      O1545   1.262       .  A
N1535      O1546   1.262       .  A
N1537      O1543   1.261       .  A
N1537      O1544   1.262       .  A
C1547      H1557   1.084       .  S
C1547      C1548   1.400       .  A
C1547      C1552   1.402       .  A
C1548      C1553   1.470       .  S
C1548      C1549   1.407       .  A
C1549      C1550   1.393       .  A
C1549      N1554   1.431       .  S
C1550      H1555   1.079       .  S
C1550      C1551   1.401       .  A
C1551      C1552   1.412       .  A
C1552      N1556   1.429       .  S
C1553      C1558   1.404       .  A
C1553      C1562   1.401       .  A
N1554      O1569   1.262       .  A
N1554      O1570   1.261       .  A
N1556      O1567   1.262       .  A
N1556      O1568   1.261       .  A
C1558      C1559   1.395       .  A
C1558      N1563   1.427       .  S
C1559      H1564   1.084       .  S
C1559      C1560   1.402       .  A
C1560      C1561   1.412       .  A
C1561      C1562   1.400       .  A
C1561      N1565   1.429       .  S
C1562      H1566   1.084       .  S
N1563      O1573   1.261       .  A
N1563      O1574   1.261       .  A
N1565      O1571   1.262       .  A
N1565      O1572   1.262       .  A
C1575      H1585   1.085       .  S
C1575      C1576   1.391       .  A
C1575      C1580   1.395       .  A
C1576      C1581   1.470       .  S
C1576      C1577   1.399       .  A
C1577      C1578   1.398       .  A
C1577      N1582   1.427       .  S
C1578      H1583   1.080       .  S
C1578      C1579   1.414       .  A
C1579      C1580   1.429       .  A
C1580      N1584   1.428       .  S
C1581      C1586   1.407       .  A
C1581      C1590   1.401       .  A
N1582      O1597   1.261       .  A
N1582      O1598   1.262       .  A
N1584      O1595   1.263       .  A
N1584      O1596   1.261       .  A
C1586      C1587   1.395       .  A
C1586      N1591   1.429       .  S
C1587      H1592   1.084       .  S
C1587      C1588   1.403       .  A
C1588      C1589   1.411       .  A
C1589      C1590   1.398       .  A
C1589      N1593   1.429       .  S
C1590      H1594   1.084       .  S
N1591      O1601   1.262       .  A
N1591      O1602   1.262       .  A
N1593      O1599   1.262       .  A
N1593      O1600   1.262       .  A
C1603      H1613   1.084       .  S
C1603      C1604   1.401       .  A
C1603      C1608   1.405       .  A
C1604      C1609   1.480       .  S
C1604      C1605   1.407       .  A
C1605      C1606   1.400       .  A
C1605      N1610   1.430       .  S
C1606      H1611   1.079       .  S
C1606      C1607   1.406       .  A
C1607      C1608   1.413       .  A
C1608      N1612   1.427       .  S
C1609      C1614   1.408       .  A
C1609      C1618   1.401       .  A
N1610      O1625   1.262       .  A
N1610      O1626   1.261       .  A
N1612      O1623   1.262       .  A
N1612      O1624   1.261       .  A
C1614      C1615   1.400       .  A
C1614      N1619   1.428       .  S
C1615      H1620   1.084       .  S
C1615      C1616   1.403       .  A
C1616      C1617   1.414       .  A
C1617      C1618   1.402       .  A
C1617      N1621   1.428       .  S
C1618      H1622   1.084       .  S
N1619      O1629   1.261       .  A
N1619      O1630   1.262       .  A
N1621      O1627   1.262       .  A
N1621      O1628   1.262       .  A
C1631      H1641   1.084       .  S
C1631      C1632   1.402       .  A
C1631      C1636   1.401       .  A
C1632      C1637   1.464       .  S
C1632      C1633   1.401       .  A
C1633      C1634   1.388       .  A
C1633      N1638   1.429       .  S
C1634      H1639   1.084       .  S
C1634      C1635   1.403       .  A
C1635      C1636   1.413       .  A
C1636      N1640   1.429       .  S
C1637      C1642   1.400       .  A
C1637      C1646   1.396       .  A
N1638      O1653   1.262       .  A
N1638      O1654   1.262       .  A
N1640      O1651   1.262       .  A
N1640      O1652   1.262       .  A
C1642      C1643   1.396       .  A
C1642      N1647   1.430       .  S
C1643      H1648   1.083       .  S
C1643      C1644   1.412       .  A
C1644      C1645   1.416       .  A
C1645      C1646   1.395       .  A
C1645      N1649   1.429       .  S
C1646      H1650   1.084       .  S
N1647      O1657   1.262       .  A
N1647      O1658   1.262       .  A
N1649      O1655   1.261       .  A
N1649      O1656   1.261       .  A
C1659      H1669   1.085       .  S
C1659      C1660   1.400       .  A
C1659      C1664   1.394       .  A
C1660      C1665   1.457       .  S
C1660      C1661   1.400       .  A
C1661      C1662   1.388       .  A
C1661      N1666   1.428       .  S
C1662      H1667   1.077       .  S
C1662      C1663   1.399       .  A
C1663      C1664   1.407       .  A
C1664      N1668   1.426       .  S
C1665      C1670   1.404       .  A
C1665      C1674   1.397       .  A
N1666      O1681   1.262       .  A
N1666      O1682   1.261       .  A
N1668      O1679   1.261       .  A
N1668      O1680   1.262       .  A
C1670      C1671   1.391       .  A
C1670      N1675   1.429       .  S
C1671      H1676   1.084       .  S
C1671      C1672   1.401       .  A
C1672      C1673   1.413       .  A
C1673      C1674   1.393       .  A
C1673      N1677   1.429       .  S
C1674      H1678   1.084       .  S
N1675      O1685   1.262       .  A
N1675      O1686   1.262       .  A
N1677      O1683   1.262       .  A
N1677      O1684   1.262       .  A
C1687      H1697   1.084       .  S
C1687      C1688   1.396       .  A
C1687      C1692   1.392       .  A
C1688      C1693   1.469       .  S
C1688      C1689   1.409       .  A
C1689      C1690   1.395       .  A
C1689      N1694   1.429       .  S
C1690      H1695   1.083       .  S
C1690      C1691   1.401       .  A
C1691      C1692   1.416       .  A
C1692      N1696   1.429       .  S
C1693      C1698   1.408       .  A
C1693      C1702   1.396       .  A
N1694      O1709   1.262       .  A
N1694      O1710   1.262       .  A
N1696      O1707   1.260       .  A
N1696      O1708   1.262       .  A
C1698      C1699   1.395       .  A
C1698      N1703   1.429       .  S
C1699      H1704   1.082       .  S
C1699      C1700   1.404       .  A
C1700      C1701   1.410       .  A
C1701      C1702   1.393       .  A
C1701      N1705   1.424       .  S
C1702      H1706   1.084       .  S
N1703      O1713   1.262       .  A
N1703      O1714   1.262       .  A
N1705      O1711   1.261       .  A
N1705      O1712   1.262       .  A
C1715      H1725   1.084       .  S
C1715      C1716   1.400       .  A
C1715      C1720   1.399       .  A
C1716      C1721   1.462       .  S
C1716      C1717   1.402       .  A
C1717      C1718   1.391       .  A
C1717      N1722   1.430       .  S
C1718      H1723   1.083       .  S
C1718      C1719   1.405       .  A
C1719      C1720   1.411       .  A
C1720      N1724   1.428       .  S
C1721      C1726   1.400       .  A
C1721      C1730   1.395       .  A
N1722      O1737   1.262       .  A
N1722      O1738   1.262       .  A
N1724      O1735   1.262       .  A
N1724      O1736   1.262       .  A
C1726      C1727   1.396       .  A
C1726      N1731   1.429       .  S
C1727      H1732   1.083       .  S
C1727      C1728   1.412       .  A
C1728      C1729   1.414       .  A
C1729      C1730   1.394       .  A
C1729      N1733   1.426       .  S
C1730      H1734   1.084       .  S
N1731      O1741   1.262       .  A
N1731      O1742   1.262       .  A
N1733      O1739   1.260       .  A
N1733      O1740   1.262       .  A
