geometry optimzed in LAMMPS
_audit_creation_date              2020-11-30 
_audit_creation_method            'lammps2cif' 
_symmetry_space_group_name_H-M    'P1' 
_symmetry_Int_Tables_number       1 
_symmetry_cell_setting            triclinic 
loop_ 
_symmetry_equiv_pos_as_xyz 
  x,y,z 
_cell_length_a                    36.62002192 
_cell_length_b                    36.62002170997197 
_cell_length_c                    26.202184277266884 
_cell_angle_alpha                 90.0015800699979 
_cell_angle_beta                  89.99791793123597 
_cell_angle_gamma                 89.99330540986665 
loop_ 
_atom_site_label 
_atom_site_type_symbol 
_atom_site_fract_x 
_atom_site_fract_y 
_atom_site_fract_z 
_atom_site_charge 
O1          O  0.50000661  0.44813323  0.45848316    -0.69600
O2          O  0.99992611  0.05186188  0.45849197    -0.69800
O3          O  0.05182898  0.50003045  0.45848886    -0.69700
O4          O  0.44810005  0.99996422  0.45848658    -0.69700
O5          O  0.44809147  0.50003307  0.04151704    -0.69600
O6          O  0.05181996  0.99995380  0.04151915    -0.69600
O7          O  0.49998997  0.05185765  0.04152246    -0.69600
O8          O  0.99992217  0.44812900  0.04151370    -0.69800
V9          V  0.99996467  0.49999751  0.46010186     1.35200
V10         V  0.49995566  0.99999336  0.03990385     1.35200
C11         C  0.99996957  0.43062272  0.99999707     0.79700
C12         C  0.99994831  0.06936567  0.00000863     0.79700
C13         C  0.06933447  0.99998284  0.50000418     0.79600
C14         C  0.43059150  0.00000891  0.50000153     0.79500
O15         O  0.99994876  0.05185631  0.20848726    -0.69600
O16         O  0.50003713  0.44812783  0.20849641    -0.69800
O17         O  0.44812738  0.99995405  0.20847518    -0.69700
O18         O  0.05185590  0.50003005  0.20850849    -0.69700
O19         O  0.05184082  0.99995082  0.29153933    -0.69600
O20         O  0.44811219  0.50004379  0.29150566    -0.69600
O21         O  0.99993695  0.44813294  0.29152684    -0.69600
O22         O  0.50001749  0.05186165  0.29151772    -0.69800
V23         V  0.49999180  0.99999214  0.21010624     1.35200
V24         V  0.49997691  0.49999723  0.28990808     1.35200
C25         C  0.49998393  0.06936615  0.25000092     0.79700
C26         C  0.49998949  0.43062321  0.25001298     0.79700
C27         C  0.43061237  0.50000047  0.24998521     0.79600
C28         C  0.06935534  0.49998888  0.25002898     0.79500
O29         O  0.02966074  0.25001828  0.07246049    -0.69600
O30         O  0.02970292  0.24996130  0.42754003    -0.69800
O31         O  0.02967689  0.30185389  0.99995782    -0.69700
O32         O  0.02971127  0.19812506  0.50004568    -0.69700
O33         O  0.47026440  0.19813492  0.99996869    -0.69600
O34         O  0.47031413  0.30186600  0.50004007    -0.69600
O35         O  0.47032657  0.25002423  0.42754462    -0.69600
O36         O  0.47028436  0.24997743  0.07246722    -0.69800
V37         V  0.02850905  0.24998731  0.00000186     1.35200
V38         V  0.47147650  0.25000099  0.50000437     1.35200
C39         C  0.99997393  0.24999839  0.09705640     0.79700
C40         C  0.00001428  0.24999197  0.40294981     0.79700
C41         C  0.99997823  0.31937011  0.99999734     0.79600
C42         C  0.99996208  0.18061783  0.00000877     0.79500
O43         O  0.47031929  0.24996961  0.32247285    -0.69600
O44         O  0.47029591  0.25002940  0.17755228    -0.69800
O45         O  0.47029381  0.19813333  0.24996796    -0.69700
O46         O  0.47029862  0.30186554  0.25005890    -0.69700
O47         O  0.02969892  0.30185639  0.24995883    -0.69000
O48         O  0.02969413  0.19812340  0.25002783    -0.69600
O49         O  0.02967226  0.24996503  0.17753257    -0.69600
O50         O  0.02969563  0.25001477  0.32245502    -0.69800
V51         V  0.47145874  0.24999928  0.25001275     1.35200
V52         V  0.02853382  0.24999006  0.24999370     1.35200
C53         C  0.50001055  0.24999168  0.34705645     0.79700
C54         C  0.49998025  0.24999799  0.15294987     0.79700
C55         C  0.49999304  0.18061853  0.24999671     0.79600
C56         C  0.49999936  0.31937080  0.25001087     0.79500
O57         O  0.30182524  0.47029205  0.99996203    -0.69600
O58         O  0.19810733  0.47028078  0.50004531    -0.69800
O59         O  0.24994958  0.47030421  0.42754293    -0.69700
O60         O  0.24998665  0.47030773  0.07246447    -0.69700
O61         O  0.24992940  0.02968414  0.07246696    -0.69600
O62         O  0.24998389  0.02968068  0.42754554    -0.69600
O63         O  0.19808942  0.02969974  0.99996843    -0.69600
O64         O  0.30182043  0.02970416  0.50004390    -0.69800
V65         V  0.24997390  0.47145483  0.50000385     1.35200
V66         V  0.24995595  0.02853355  0.00000605     1.35200
C67         C  0.31933981  0.00000763  0.50000248     0.79700
C68         C  0.18058112  0.00000069  0.00000691     0.79700
C69         C  0.24997196  0.99999257  0.40295171     0.79600
C70         C  0.24996057  0.99999588  0.09705826     0.79500
O71         O  0.19811001  0.02968990  0.24997946    -0.69600
O72         O  0.30184257  0.02969923  0.25003469    -0.69800
O73         O  0.24999578  0.02968349  0.17754606    -0.69700
O74         O  0.24995255  0.02968158  0.32246770    -0.69700
O75         O  0.25002139  0.47030511  0.32246398    -0.69600
O76         O  0.24995119  0.47030709  0.17754249    -0.69600
O77         O  0.30185453  0.47029893  0.24994821    -0.69600
O78         O  0.19812189  0.47028948  0.25005842    -0.69800
V79         V  0.24997605  0.02853193  0.25000688     1.35200
V80         V  0.24998764  0.47145676  0.25000329     1.35200
C81         C  0.18060639  0.49998827  0.25002486     0.79700
C82         C  0.31935861  0.50000054  0.24998587     0.79700
C83         C  0.24996922  0.49999557  0.15295173     0.79600
C84         C  0.24998313  0.49999300  0.34705836     0.79500
C85         C  0.10852225  0.49998605  0.25003915    -0.11100
C86         C  0.14143838  0.49998555  0.25003658    -0.12600
C87         C  0.39144447  0.50000324  0.24997471    -0.11100
C88         C  0.35852771  0.50000347  0.24997565    -0.12600
C89         C  0.49999569  0.39145581  0.25001554    -0.11100
C90         C  0.49999980  0.35853936  0.25001460    -0.12600
C91         C  0.49999054  0.14144998  0.24999567    -0.11100
C92         C  0.49998702  0.10853353  0.24999743    -0.12600
C93         C  0.10850205  0.99997366  0.50000522    -0.11100
C94         C  0.14141251  0.00000275  0.00000648    -0.12600
C95         C  0.39142429  0.00001491  0.50000106    -0.11100
C96         C  0.35850800  0.00001498  0.50000144    -0.12600
C97         C  0.99998051  0.35853875  0.99999449    -0.11100
C98         C  0.99997687  0.39145526  0.99999421    -0.12600
C99         C  0.99995586  0.14144937  0.00001137    -0.11100
C100        C  0.99994997  0.10853297  0.00001142    -0.12600
O101        O  0.50001016  0.44813082  0.95848328    -0.69600
O102        O  0.99990830  0.05185941  0.95849202    -0.69800
O103        O  0.05182324  0.50004065  0.95848894    -0.69700
O104        O  0.44809430  0.99994999  0.95848665    -0.69700
O105        O  0.44809722  0.50004694  0.54151689    -0.69600
O106        O  0.05182573  0.99994398  0.54151899    -0.69600
O107        O  0.50000766  0.05186001  0.54152239    -0.69600
O108        O  0.99991884  0.44813140  0.54151361    -0.69800
V109        V  0.99995885  0.49999517  0.96010200     1.35200
V110        V  0.49996157  0.99999564  0.53990371     1.35200
C111        C  0.99996847  0.43062518  0.49999697     0.79700
C112        C  0.99997187  0.06936815  0.50000859     0.79700
C113        C  0.06932865  0.99999871  0.00000433     0.79600
C114        C  0.43058565  0.99999045  0.00000155     0.79500
O115        O  0.99993662  0.05185521  0.70848453    -0.69600
O116        O  0.50002503  0.44812670  0.70849928    -0.69800
O117        O  0.44811572  0.99995279  0.70850552    -0.69700
O118        O  0.05184418  0.50002902  0.70847808    -0.69700
O119        O  0.05185266  0.99995193  0.79150893    -0.69600
O120        O  0.44812400  0.50004489  0.79153609    -0.69600
O121        O  0.99994928  0.44813401  0.79152974    -0.69600
O122        O  0.50002982  0.05186273  0.79151495    -0.69800
V123        V  0.49998033  0.99999103  0.71010623     1.35200
V124        V  0.49998859  0.49999828  0.78990808     1.35200
C125        C  0.49998404  0.06936613  0.74999729     0.79700
C126        C  0.49998960  0.43062320  0.75001682     0.79700
C127        C  0.43061243  0.50000035  0.75002519     0.79600
C128        C  0.06935538  0.49998887  0.74998900     0.79500
O129        O  0.02970201  0.25002377  0.57246343    -0.69600
O130        O  0.02966163  0.24995576  0.92754307    -0.69800
O131        O  0.02971447  0.30186029  0.49995787    -0.69700
O132        O  0.02966474  0.19812032  0.00004577    -0.69700
O133        O  0.47031101  0.19813608  0.49996884    -0.69600
O134        O  0.47027657  0.30186659  0.00004010    -0.69600
O135        O  0.47028521  0.25002371  0.92754162    -0.69600
O136        O  0.47032567  0.24997816  0.57246424    -0.69800
V137        V  0.02855157  0.24999277  0.50000184     1.35200
V138        V  0.47143392  0.25000044  0.00000433     1.35200
C139        C  0.00001331  0.25000153  0.59705637     0.79700
C140        C  0.99997487  0.24998888  0.90294982     0.79700
C141        C  0.00001339  0.31937295  0.49999731     0.79600
C142        C  0.00000943  0.18062071  0.50000874     0.79500
O143        O  0.47029663  0.24996795  0.82245750    -0.69600
O144        O  0.47031857  0.25003125  0.67753694    -0.69800
O145        O  0.47029381  0.19813329  0.74994884    -0.69700
O146        O  0.47029862  0.30186558  0.75004514    -0.69700
O147        O  0.02969899  0.30185643  0.74997894    -0.69000
O148        O  0.02969415  0.19812343  0.75004056    -0.69600
O149        O  0.02969495  0.24996773  0.67754775    -0.69600
O150        O  0.02967306  0.25001213  0.82247029    -0.69800
V151        V  0.47145872  0.24999932  0.74999709     1.35200
V152        V  0.02853389  0.24999009  0.75000924     1.35200
C153        C  0.49998131  0.24998904  0.84705642     0.79700
C154        C  0.50000947  0.25000072  0.65294981     0.79700
C155        C  0.49999307  0.18061854  0.74999251     0.79600
C156        C  0.49999939  0.31937082  0.75001518     0.79500
O157        O  0.30184005  0.47030376  0.49996206    -0.69600
O158        O  0.19809269  0.47029936  0.00004516    -0.69800
O159        O  0.24993310  0.47030780  0.92754303    -0.69700
O160        O  0.25000311  0.47030430  0.57246475    -0.69700
O161        O  0.24992888  0.02968066  0.57246672    -0.69600
O162        O  0.24998410  0.02968422  0.92754524    -0.69600
O163        O  0.19808795  0.02968106  0.49996817    -0.69600
O164        O  0.30182212  0.02969254  0.00004362    -0.69800
V165        V  0.24995897  0.47145835  0.00000377     1.35200
V166        V  0.24995481  0.02852996  0.50000606     1.35200
C167        C  0.31933336  0.99999117  0.00000223     0.79700
C168        C  0.18058754  0.99997738  0.50000677     0.79700
C169        C  0.24996119  0.99999600  0.90295163     0.79600
C170        C  0.24997125  0.99999258  0.59705827     0.79500
O171        O  0.19811010  0.02969001  0.74995888    -0.69600
O172        O  0.30184261  0.02969926  0.75005228    -0.69800
O173        O  0.25000666  0.02968162  0.67754469    -0.69700
O174        O  0.24994188  0.02968360  0.82246625    -0.69700
O175        O  0.25000510  0.47030726  0.82246526    -0.69600
O176        O  0.24996752  0.47030527  0.67754386    -0.69600
O177        O  0.30185459  0.47029908  0.74997616    -0.69600
O178        O  0.19812198  0.47028966  0.75003342    -0.69800
V179        V  0.24997613  0.02853199  0.75000544     1.35200
V180        V  0.24998770  0.47145696  0.75000467     1.35200
C181        C  0.18060641  0.49998839  0.74999153     0.79700
C182        C  0.31935867  0.50000069  0.75001932     0.79700
C183        C  0.24998313  0.49999314  0.65295173     0.79600
C184        C  0.24996919  0.49999570  0.84705827     0.79500
C185        C  0.10852226  0.49998591  0.74998054    -0.11100
C186        C  0.14143840  0.49998552  0.74998240    -0.12600
C187        C  0.39144453  0.50000323  0.75003328    -0.11100
C188        C  0.35852777  0.50000359  0.75002999    -0.12600
C189        C  0.49999580  0.39145581  0.75002136    -0.11100
C190        C  0.49999986  0.35853937  0.75002064    -0.12600
C191        C  0.49999065  0.14144997  0.74998993    -0.11100
C192        C  0.49998713  0.10853352  0.74999197    -0.12600
C193        C  0.10849604  0.00000182  0.00000536    -0.11100
C194        C  0.14141864  0.99997076  0.50000639    -0.12600
C195        C  0.39141827  0.99998854  0.00000099    -0.11100
C196        C  0.35850186  0.99998866  0.00000119    -0.12600
C197        C  0.00000773  0.35854145  0.49999434    -0.11100
C198        C  0.99998846  0.39145785  0.49999414    -0.12600
C199        C  0.00000304  0.14145210  0.50001130    -0.11100
C200        C  0.99998777  0.10853561  0.50001141    -0.12600
O201        O  0.50000636  0.94813321  0.45848316    -0.69600
O202        O  0.99992641  0.55186189  0.45849197    -0.69800
O203        O  0.05182880  0.00003046  0.45848858    -0.69700
O204        O  0.44810030  0.49996422  0.45848643    -0.69700
O205        O  0.44809129  0.00003307  0.04151708    -0.69600
O206        O  0.05182005  0.49995374  0.04151936    -0.69600
O207        O  0.49999023  0.55185766  0.04152256    -0.69600
O208        O  0.99992218  0.94812898  0.04151370    -0.69800
V209        V  0.99996444  0.99999749  0.46010184     1.35200
V210        V  0.49995586  0.49999336  0.03990388     1.35200
C211        C  0.99996947  0.93062270  0.99999707     0.79700
C212        C  0.99994843  0.56936566  0.00000863     0.79700
C213        C  0.06933460  0.49998285  0.50000449     0.79600
C214        C  0.43059165  0.50000895  0.50000131     0.79500
O215        O  0.99994868  0.55185632  0.20848726    -0.69600
O216        O  0.50003715  0.94812778  0.20849644    -0.69800
O217        O  0.44812728  0.49995405  0.20847532    -0.69700
O218        O  0.05185601  0.00003010  0.20850880    -0.69700
O219        O  0.05184086  0.49995081  0.29153900    -0.69600
O220        O  0.44811211  0.00004378  0.29150553    -0.69600
O221        O  0.99993695  0.94813291  0.29152685    -0.69600
O222        O  0.50001754  0.55186170  0.29151772    -0.69800
V223        V  0.49999172  0.49999215  0.21010620     1.35200
V224        V  0.49997687  0.99999720  0.28990812     1.35200
C225        C  0.49998389  0.56936618  0.25000091     0.79700
C226        C  0.49998950  0.93062319  0.25001305     0.79700
C227        C  0.43061237  0.00000049  0.24998499     0.79600
C228        C  0.06935536  0.99998897  0.25002936     0.79500
O229        O  0.02966076  0.75001827  0.07246049    -0.69600
O230        O  0.02970287  0.74996125  0.42754004    -0.69800
O231        O  0.02967682  0.80185396  0.99995782    -0.69700
O232        O  0.02971122  0.69812504  0.50004568    -0.69700
O233        O  0.47026442  0.69813490  0.99996869    -0.69600
O234        O  0.47031416  0.80186607  0.50004010    -0.69600
O235        O  0.47032656  0.75002445  0.42754463    -0.69600
O236        O  0.47028430  0.74997740  0.07246722    -0.69800
V237        V  0.02850905  0.74998733  0.00000185     1.35200
V238        V  0.47147649  0.75000109  0.50000437     1.35200
C239        C  0.99997395  0.74999836  0.09705640     0.79700
C240        C  0.00001425  0.74999201  0.40294981     0.79700
C241        C  0.99997812  0.81937012  0.99999735     0.79600
C242        C  0.99996210  0.68061782  0.00000869     0.79500
O243        O  0.47031927  0.74996959  0.32247285    -0.69600
O244        O  0.47029585  0.75002939  0.17755228    -0.69800
O245        O  0.47029375  0.69813330  0.24996796    -0.69700
O246        O  0.47029864  0.80186552  0.25005890    -0.69700
O247        O  0.02969894  0.80185637  0.24995883    -0.69000
O248        O  0.02969414  0.69812338  0.25002783    -0.69600
O249        O  0.02967228  0.74996501  0.17753257    -0.69600
O250        O  0.02969564  0.75001475  0.32245503    -0.69800
V251        V  0.47145872  0.74999926  0.25001275     1.35200
V252        V  0.02853383  0.74999004  0.24999370     1.35200
C253        C  0.50001048  0.74999166  0.34705645     0.79700
C254        C  0.49998019  0.74999797  0.15294987     0.79700
C255        C  0.49999299  0.68061852  0.24999671     0.79600
C256        C  0.49999938  0.81937078  0.25001087     0.79500
O257        O  0.30182502  0.97029221  0.99996206    -0.69600
O258        O  0.19810713  0.97028077  0.50004508    -0.69800
O259        O  0.24994955  0.97030427  0.42754289    -0.69700
O260        O  0.24998638  0.97030777  0.07246445    -0.69700
O261        O  0.24992967  0.52968411  0.07246695    -0.69600
O262        O  0.24998392  0.52968061  0.42754552    -0.69600
O263        O  0.19808964  0.52969968  0.99996843    -0.69600
O264        O  0.30182062  0.52970415  0.50004355    -0.69800
V265        V  0.24997371  0.97145483  0.50000380     1.35200
V266        V  0.24995617  0.52853347  0.00000605     1.35200
C267        C  0.31933997  0.50000762  0.50000217     0.79700
C268        C  0.18058130  0.50000065  0.00000691     0.79700
C269        C  0.24997194  0.49999250  0.40295171     0.79600
C270        C  0.24996084  0.49999586  0.09705826     0.79500
O271        O  0.19811004  0.52968988  0.24997933    -0.69600
O272        O  0.30184258  0.52969920  0.25003475    -0.69800
O273        O  0.24999602  0.52968347  0.17754607    -0.69700
O274        O  0.24995238  0.52968150  0.32246771    -0.69700
O275        O  0.25002141  0.97030522  0.32246397    -0.69600
O276        O  0.24995116  0.97030712  0.17754249    -0.69600
O277        O  0.30185452  0.97029898  0.24994798    -0.69600
O278        O  0.19812190  0.97028952  0.25005850    -0.69800
V279        V  0.24997606  0.52853188  0.25000689     1.35200
V280        V  0.24998765  0.97145685  0.25000327     1.35200
C281        C  0.18060636  0.99998828  0.25002508     0.79700
C282        C  0.31935861  0.00000058  0.24998571     0.79700
C283        C  0.24996902  0.99999558  0.15295172     0.79600
C284        C  0.24998322  0.99999309  0.34705835     0.79500
C285        C  0.10852222  0.99998608  0.25003957    -0.11100
C286        C  0.14143836  0.99998553  0.25003697    -0.12600
C287        C  0.39144447  0.00000327  0.24997431    -0.11100
C288        C  0.35852771  0.00000349  0.24997532    -0.12600
C289        C  0.49999571  0.89145579  0.25001572    -0.11100
C290        C  0.49999982  0.85853934  0.25001468    -0.12600
C291        C  0.49999053  0.64144999  0.24999566    -0.11100
C292        C  0.49998703  0.60853354  0.24999738    -0.12600
C293        C  0.10850220  0.49997368  0.50000545    -0.11100
C294        C  0.14141268  0.50000281  0.00000657    -0.12600
C295        C  0.39142445  0.50001489  0.50000069    -0.11100
C296        C  0.35850816  0.50001496  0.50000104    -0.12600
C297        C  0.99998028  0.85853876  0.99999450    -0.11100
C298        C  0.99997666  0.89145525  0.99999421    -0.12600
C299        C  0.99995588  0.64144936  0.00001137    -0.11100
C300        C  0.99995004  0.60853296  0.00001143    -0.12600
O301        O  0.50001012  0.94813080  0.95848329    -0.69600
O302        O  0.99990841  0.55185942  0.95849203    -0.69800
O303        O  0.05182300  0.00004052  0.95848873    -0.69700
O304        O  0.44809454  0.49995005  0.95848661    -0.69700
O305        O  0.44809717  0.00004680  0.54151704    -0.69600
O306        O  0.05182579  0.49994402  0.54151927    -0.69600
O307        O  0.50000765  0.55186007  0.54152240    -0.69600
O308        O  0.99991874  0.94813136  0.54151360    -0.69800
V309        V  0.99995864  0.99999514  0.96010198     1.35200
V310        V  0.49996162  0.49999570  0.53990375     1.35200
C311        C  0.99996838  0.93062516  0.49999696     0.79700
C312        C  0.99997210  0.56936818  0.50000858     0.79700
C313        C  0.06932881  0.49999867  0.00000460     0.79600
C314        C  0.43058583  0.49999047  0.00000148     0.79500
O315        O  0.99993631  0.55185525  0.70848453    -0.69600
O316        O  0.50002508  0.94812668  0.70849929    -0.69800
O317        O  0.44811561  0.49995277  0.70850574    -0.69700
O318        O  0.05184431  0.00002883  0.70847840    -0.69700
O319        O  0.05185267  0.49995193  0.79150860    -0.69600
O320        O  0.44812392  0.00004489  0.79153586    -0.69600
O321        O  0.99994929  0.94813399  0.79152974    -0.69600
O322        O  0.50002982  0.55186275  0.79151494    -0.69800
V323        V  0.49998018  0.49999108  0.71010620     1.35200
V324        V  0.49998856  0.99999826  0.78990811     1.35200
C325        C  0.49998384  0.56936617  0.74999729     0.79700
C326        C  0.49998962  0.93062318  0.75001683     0.79700
C327        C  0.43061243  0.00000037  0.75002489     0.79600
C328        C  0.06935543  0.99998880  0.74998937     0.79500
O329        O  0.02970203  0.75002375  0.57246343    -0.69600
O330        O  0.02966161  0.74995579  0.92754307    -0.69800
O331        O  0.02971449  0.80186027  0.49995787    -0.69700
O332        O  0.02966476  0.69812031  0.00004580    -0.69700
O333        O  0.47031090  0.69813615  0.49996880    -0.69600
O334        O  0.47027644  0.80186655  0.00004011    -0.69600
O335        O  0.47028520  0.75002373  0.92754165    -0.69600
O336        O  0.47032565  0.74997820  0.57246425    -0.69800
V337        V  0.02855156  0.74999275  0.50000183     1.35200
V338        V  0.47143390  0.75000042  0.00000433     1.35200
C339        C  0.00001333  0.75000150  0.59705638     0.79700
C340        C  0.99997480  0.74998895  0.90294982     0.79700
C341        C  0.00001341  0.81937294  0.49999731     0.79600
C342        C  0.00000939  0.68062070  0.50000873     0.79500
O343        O  0.47029654  0.74996795  0.82245751    -0.69600
O344        O  0.47031856  0.75003125  0.67753695    -0.69800
O345        O  0.47029369  0.69813337  0.74994884    -0.69700
O346        O  0.47029865  0.80186558  0.75004514    -0.69700
O347        O  0.02969905  0.80185639  0.74997894    -0.69000
O348        O  0.02969400  0.69812340  0.75004056    -0.69600
O349        O  0.02969494  0.74996770  0.67754776    -0.69600
O350        O  0.02967303  0.75001211  0.82247030    -0.69800
V351        V  0.47145870  0.74999934  0.74999709     1.35200
V352        V  0.02853385  0.74999006  0.75000924     1.35200
C353        C  0.49998120  0.74998907  0.84705642     0.79700
C354        C  0.50000951  0.75000070  0.65294981     0.79700
C355        C  0.49999291  0.68061855  0.74999251     0.79600
C356        C  0.49999942  0.81937081  0.75001518     0.79500
O357        O  0.30183988  0.97030377  0.49996214    -0.69600
O358        O  0.19809253  0.97029943  0.00004513    -0.69800
O359        O  0.24993306  0.97030785  0.92754306    -0.69700
O360        O  0.25000283  0.97030429  0.57246472    -0.69700
O361        O  0.24992922  0.52968067  0.57246672    -0.69600
O362        O  0.24998434  0.52968419  0.92754526    -0.69600
O363        O  0.19808818  0.52968106  0.49996843    -0.69600
O364        O  0.30182228  0.52969240  0.00004362    -0.69800
V365        V  0.24995877  0.97145847  0.00000377     1.35200
V366        V  0.24995502  0.52852995  0.50000605     1.35200
C367        C  0.31933355  0.49999105  0.00000222     0.79700
C368        C  0.18058775  0.49997739  0.50000694     0.79700
C369        C  0.24996125  0.49999598  0.90295163     0.79600
C370        C  0.24997148  0.49999259  0.59705827     0.79500
O371        O  0.19811002  0.52969006  0.74995878    -0.69600
O372        O  0.30184260  0.52969935  0.75005235    -0.69800
O373        O  0.25000669  0.52968166  0.67754468    -0.69700
O374        O  0.24994171  0.52968364  0.82246627    -0.69700
O375        O  0.25000513  0.97030722  0.82246526    -0.69600
O376        O  0.24996750  0.97030524  0.67754383    -0.69600
O377        O  0.30185460  0.97029900  0.74997587    -0.69600
O378        O  0.19812200  0.97028963  0.75003351    -0.69800
V379        V  0.24997608  0.52853209  0.75000545     1.35200
V380        V  0.24998772  0.97145690  0.75000463     1.35200
C381        C  0.18060645  0.99998837  0.74999175     0.79700
C382        C  0.31935866  0.00000062  0.75001903     0.79700
C383        C  0.24998307  0.99999312  0.65295172     0.79600
C384        C  0.24996926  0.99999567  0.84705827     0.79500
C385        C  0.10852231  0.99998589  0.74998097    -0.11100
C386        C  0.14143845  0.99998554  0.74998279    -0.12600
C387        C  0.39144451  0.00000325  0.75003283    -0.11100
C388        C  0.35852775  0.00000357  0.75002958    -0.12600
C389        C  0.49999581  0.89145579  0.75002136    -0.11100
C390        C  0.49999988  0.85853935  0.75002064    -0.12600
C391        C  0.49999038  0.64145000  0.74998993    -0.11100
C392        C  0.49998686  0.60853355  0.74999197    -0.12600
C393        C  0.10849621  0.50000181  0.00000568    -0.11100
C394        C  0.14141882  0.49997079  0.50000642    -0.12600
C395        C  0.39141845  0.49998857  0.00000082    -0.11100
C396        C  0.35850202  0.49998863  0.00000112    -0.12600
C397        C  0.00000776  0.85854143  0.49999434    -0.11100
C398        C  0.99998848  0.89145783  0.49999413    -0.12600
C399        C  0.00000305  0.64145210  0.50001129    -0.11100
C400        C  0.99998800  0.60853563  0.50001135    -0.12600
O401        O  0.00000662  0.44813323  0.45848316    -0.69600
O402        O  0.49992614  0.05186188  0.45849197    -0.69800
O403        O  0.55182898  0.50003045  0.45848885    -0.69700
O404        O  0.94810003  0.99996422  0.45848658    -0.69700
O405        O  0.94809145  0.50003307  0.04151704    -0.69600
O406        O  0.55181991  0.99995379  0.04151924    -0.69600
O407        O  0.99999013  0.05185765  0.04152246    -0.69600
O408        O  0.49992220  0.44812899  0.04151370    -0.69800
V409        V  0.49996468  0.49999751  0.46010186     1.35200
V410        V  0.99995577  0.99999336  0.03990383     1.35200
C411        C  0.49996958  0.43062271  0.99999706     0.79700
C412        C  0.49994822  0.06936567  0.00000863     0.79700
C413        C  0.56933446  0.99998284  0.50000418     0.79600
C414        C  0.93059147  0.00000891  0.50000153     0.79500
O415        O  0.49994872  0.05185631  0.20848726    -0.69600
O416        O  0.00003712  0.44812780  0.20849644    -0.69800
O417        O  0.94812745  0.99995405  0.20847517    -0.69700
O418        O  0.55185589  0.50003007  0.20850849    -0.69700
O419        O  0.55184082  0.99995083  0.29153931    -0.69600
O420        O  0.94811217  0.50004379  0.29150574    -0.69600
O421        O  0.49993698  0.44813291  0.29152681    -0.69600
O422        O  0.00001750  0.05186165  0.29151772    -0.69800
V423        V  0.99999188  0.99999214  0.21010624     1.35200
V424        V  0.99997691  0.49999723  0.28990809     1.35200
C425        C  0.99998392  0.06936615  0.25000092     0.79700
C426        C  0.99998947  0.43062321  0.25001305     0.79700
C427        C  0.93061235  0.50000048  0.24998528     0.79600
C428        C  0.56935533  0.49998889  0.25002898     0.79500
O429        O  0.52966075  0.25001828  0.07246049    -0.69600
O430        O  0.52970294  0.24996130  0.42754005    -0.69800
O431        O  0.52967689  0.30185389  0.99995782    -0.69700
O432        O  0.52971133  0.19812505  0.50004568    -0.69700
O433        O  0.97026439  0.19813492  0.99996869    -0.69600
O434        O  0.97031414  0.30186600  0.50004007    -0.69600
O435        O  0.97032655  0.25002423  0.42754463    -0.69600
O436        O  0.97028435  0.24997743  0.07246722    -0.69800
V437        V  0.52850904  0.24998731  0.00000185     1.35200
V438        V  0.97147647  0.25000099  0.50000437     1.35200
C439        C  0.49997394  0.24999839  0.09705640     0.79700
C440        C  0.50001426  0.24999197  0.40294981     0.79700
C441        C  0.49997824  0.31937011  0.99999734     0.79600
C442        C  0.49996209  0.18061783  0.00000877     0.79500
O443        O  0.97031925  0.24996961  0.32247285    -0.69600
O444        O  0.97029590  0.25002940  0.17755228    -0.69800
O445        O  0.97029380  0.19813333  0.24996796    -0.69700
O446        O  0.97029861  0.30186554  0.25005890    -0.69700
O447        O  0.52969892  0.30185639  0.24995883    -0.69000
O448        O  0.52969413  0.19812341  0.25002783    -0.69600
O449        O  0.52967226  0.24996503  0.17753257    -0.69600
O450        O  0.52969566  0.25001477  0.32245502    -0.69800
V451        V  0.97145873  0.24999928  0.25001274     1.35200
V452        V  0.52853382  0.24999006  0.24999369     1.35200
C453        C  0.00001047  0.24999168  0.34705645     0.79700
C454        C  0.99998025  0.24999799  0.15294987     0.79700
C455        C  0.99999303  0.18061853  0.24999671     0.79600
C456        C  0.99999935  0.31937080  0.25001087     0.79500
O457        O  0.80182523  0.47029205  0.99996203    -0.69600
O458        O  0.69810731  0.47028078  0.50004537    -0.69800
O459        O  0.74994955  0.47030421  0.42754293    -0.69700
O460        O  0.74998662  0.47030773  0.07246447    -0.69700
O461        O  0.74992945  0.02968414  0.07246696    -0.69600
O462        O  0.74998384  0.02968068  0.42754554    -0.69600
O463        O  0.69808950  0.02969978  0.99996843    -0.69600
O464        O  0.80182041  0.02970416  0.50004387    -0.69800
V465        V  0.74997388  0.47145483  0.50000385     1.35200
V466        V  0.74995603  0.02853354  0.00000605     1.35200
C467        C  0.81933978  0.00000763  0.50000248     0.79700
C468        C  0.68058113  0.00000076  0.00000691     0.79700
C469        C  0.74997193  0.99999257  0.40295171     0.79600
C470        C  0.74996056  0.99999588  0.09705826     0.79500
O471        O  0.69811001  0.02968990  0.24997942    -0.69600
O472        O  0.80184257  0.02969923  0.25003473    -0.69800
O473        O  0.74999592  0.02968349  0.17754606    -0.69700
O474        O  0.74995251  0.02968158  0.32246770    -0.69700
O475        O  0.75002136  0.47030511  0.32246398    -0.69600
O476        O  0.74995116  0.47030709  0.17754249    -0.69600
O477        O  0.80185450  0.47029893  0.24994821    -0.69600
O478        O  0.69812186  0.47028948  0.25005842    -0.69800
V479        V  0.74997606  0.02853193  0.25000688     1.35200
V480        V  0.74998761  0.47145676  0.25000329     1.35200
C481        C  0.68060636  0.49998827  0.25002486     0.79700
C482        C  0.81935858  0.50000054  0.24998586     0.79700
C483        C  0.74996919  0.49999557  0.15295173     0.79600
C484        C  0.74998311  0.49999300  0.34705836     0.79500
C485        C  0.60852222  0.49998605  0.25003915    -0.11100
C486        C  0.64143835  0.49998555  0.25003658    -0.12600
C487        C  0.89144445  0.50000324  0.24997478    -0.11100
C488        C  0.85852769  0.50000347  0.24997566    -0.12600
C489        C  0.99999567  0.39145581  0.25001572    -0.11100
C490        C  0.99999978  0.35853935  0.25001468    -0.12600
C491        C  0.99999052  0.14144998  0.24999567    -0.11100
C492        C  0.99998699  0.10853353  0.24999743    -0.12600
C493        C  0.60850203  0.99997366  0.50000522    -0.11100
C494        C  0.64141252  0.00000290  0.00000648    -0.12600
C495        C  0.89142427  0.00001491  0.50000106    -0.11100
C496        C  0.85850797  0.00001498  0.50000144    -0.12600
C497        C  0.49998053  0.35853876  0.99999449    -0.11100
C498        C  0.49997690  0.39145526  0.99999421    -0.12600
C499        C  0.49995589  0.14144937  0.00001137    -0.11100
C500        C  0.49994999  0.10853297  0.00001142    -0.12600
O501        O  0.00001020  0.44813083  0.95848329    -0.69600
O502        O  0.49990816  0.05185941  0.95849203    -0.69800
O503        O  0.55182324  0.50004049  0.95848895    -0.69700
O504        O  0.94809431  0.99995004  0.95848667    -0.69700
O505        O  0.94809720  0.50004695  0.54151689    -0.69600
O506        O  0.55182573  0.99994398  0.54151899    -0.69600
O507        O  0.00000767  0.05186001  0.54152239    -0.69600
O508        O  0.49991888  0.44813140  0.54151361    -0.69800
V509        V  0.49995886  0.49999514  0.96010203     1.35200
V510        V  0.99996156  0.99999564  0.53990371     1.35200
C511        C  0.49996849  0.43062518  0.49999697     0.79700
C512        C  0.49997188  0.06936815  0.50000859     0.79700
C513        C  0.56932863  0.99999871  0.00000443     0.79600
C514        C  0.93058569  0.99999046  0.00000158     0.79500
O515        O  0.49993665  0.05185521  0.70848453    -0.69600
O516        O  0.00002504  0.44812670  0.70849928    -0.69800
O517        O  0.94811575  0.99995279  0.70850551    -0.69700
O518        O  0.55184417  0.50002901  0.70847808    -0.69700
O519        O  0.55185264  0.99995193  0.79150893    -0.69600
O520        O  0.94812398  0.50004489  0.79153608    -0.69600
O521        O  0.49994931  0.44813401  0.79152974    -0.69600
O522        O  0.00002984  0.05186273  0.79151495    -0.69800
V523        V  0.99998034  0.99999103  0.71010623     1.35200
V524        V  0.99998858  0.49999828  0.78990808     1.35200
C525        C  0.99998403  0.06936613  0.74999729     0.79700
C526        C  0.99998958  0.43062320  0.75001682     0.79700
C527        C  0.93061240  0.50000035  0.75002519     0.79600
C528        C  0.56935538  0.49998887  0.74998900     0.79500
O529        O  0.52970204  0.25002377  0.57246343    -0.69600
O530        O  0.52966159  0.24995576  0.92754307    -0.69800
O531        O  0.52971446  0.30186030  0.49995787    -0.69700
O532        O  0.52966474  0.19812032  0.00004577    -0.69700
O533        O  0.97031095  0.19813607  0.49996883    -0.69600
O534        O  0.97027656  0.30186658  0.00004010    -0.69600
O535        O  0.97028524  0.25002371  0.92754162    -0.69600
O536        O  0.97032563  0.24997817  0.57246425    -0.69800
V537        V  0.52855159  0.24999277  0.50000183     1.35200
V538        V  0.97143392  0.25000044  0.00000433     1.35200
C539        C  0.50001339  0.25000153  0.59705638     0.79700
C540        C  0.49997479  0.24998888  0.90294982     0.79700
C541        C  0.50001338  0.31937295  0.49999731     0.79600
C542        C  0.50000948  0.18062071  0.50000874     0.79500
O543        O  0.97029669  0.24996795  0.82245751    -0.69600
O544        O  0.97031859  0.25003125  0.67753697    -0.69800
O545        O  0.97029385  0.19813331  0.74994885    -0.69700
O546        O  0.97029866  0.30186556  0.75004514    -0.69700
O547        O  0.52969897  0.30185642  0.74997895    -0.69000
O548        O  0.52969413  0.19812344  0.75004056    -0.69600
O549        O  0.52969494  0.24996773  0.67754778    -0.69600
O550        O  0.52967302  0.25001213  0.82247030    -0.69800
V551        V  0.97145881  0.24999932  0.74999710     1.35200
V552        V  0.52853384  0.24999009  0.75000925     1.35200
C553        C  0.99998132  0.24998904  0.84705643     0.79700
C554        C  0.00000951  0.25000072  0.65294981     0.79700
C555        C  0.99999308  0.18061853  0.74999251     0.79600
C556        C  0.99999940  0.31937083  0.75001518     0.79500
O557        O  0.80184002  0.47030376  0.49996205    -0.69600
O558        O  0.69809266  0.47029936  0.00004516    -0.69800
O559        O  0.74993308  0.47030781  0.92754303    -0.69700
O560        O  0.75000308  0.47030430  0.57246475    -0.69700
O561        O  0.74992902  0.02968066  0.57246672    -0.69600
O562        O  0.74998415  0.02968422  0.92754524    -0.69600
O563        O  0.69808794  0.02968106  0.49996821    -0.69600
O564        O  0.80182219  0.02969248  0.00004362    -0.69800
V565        V  0.74995895  0.47145835  0.00000377     1.35200
V566        V  0.74995481  0.02852996  0.50000606     1.35200
C567        C  0.81933339  0.99999110  0.00000223     0.79700
C568        C  0.68058752  0.99997738  0.50000678     0.79700
C569        C  0.74996118  0.99999600  0.90295163     0.79600
C570        C  0.74997128  0.99999258  0.59705827     0.79500
O571        O  0.69811008  0.02969001  0.74995888    -0.69600
O572        O  0.80184264  0.02969927  0.75005228    -0.69800
O573        O  0.75000665  0.02968162  0.67754469    -0.69700
O574        O  0.74994186  0.02968360  0.82246625    -0.69700
O575        O  0.75000507  0.47030726  0.82246527    -0.69600
O576        O  0.74996749  0.47030527  0.67754386    -0.69600
O577        O  0.80185457  0.47029908  0.74997616    -0.69600
O578        O  0.69812197  0.47028965  0.75003342    -0.69800
V579        V  0.74997613  0.02853200  0.75000544     1.35200
V580        V  0.74998768  0.47145696  0.75000467     1.35200
C581        C  0.68060642  0.49998840  0.74999153     0.79700
C582        C  0.81935865  0.50000069  0.75001932     0.79700
C583        C  0.74998310  0.49999314  0.65295173     0.79600
C584        C  0.74996916  0.49999570  0.84705827     0.79500
C585        C  0.60852226  0.49998592  0.74998054    -0.11100
C586        C  0.64143841  0.49998556  0.74998240    -0.12600
C587        C  0.89144451  0.50000323  0.75003328    -0.11100
C588        C  0.85852774  0.50000359  0.75002999    -0.12600
C589        C  0.99999577  0.39145582  0.75002136    -0.11100
C590        C  0.99999984  0.35853937  0.75002064    -0.12600
C591        C  0.99999063  0.14144996  0.74998993    -0.11100
C592        C  0.99998710  0.10853351  0.74999197    -0.12600
C593        C  0.60849604  0.00000188  0.00000541    -0.11100
C594        C  0.64141862  0.99997076  0.50000639    -0.12600
C595        C  0.89141831  0.99998854  0.00000102    -0.11100
C596        C  0.85850189  0.99998859  0.00000120    -0.12600
C597        C  0.50000772  0.35854145  0.49999434    -0.11100
C598        C  0.49998848  0.39145785  0.49999414    -0.12600
C599        C  0.50000306  0.14145210  0.50001130    -0.11100
C600        C  0.49998778  0.10853561  0.50001141    -0.12600
O601        O  0.00000641  0.94813321  0.45848316    -0.69600
O602        O  0.49992640  0.55186189  0.45849197    -0.69800
O603        O  0.55182879  0.00003045  0.45848858    -0.69700
O604        O  0.94810028  0.49996422  0.45848643    -0.69700
O605        O  0.94809138  0.00003306  0.04151710    -0.69600
O606        O  0.55182005  0.49995377  0.04151937    -0.69600
O607        O  0.99999021  0.55185765  0.04152247    -0.69600
O608        O  0.49992198  0.94812898  0.04151370    -0.69800
V609        V  0.49996444  0.99999749  0.46010184     1.35200
V610        V  0.99995584  0.49999337  0.03990386     1.35200
C611        C  0.49996948  0.93062270  0.99999707     0.79700
C612        C  0.49994846  0.56936566  0.00000872     0.79700
C613        C  0.56933459  0.49998285  0.50000449     0.79600
C614        C  0.93059163  0.50000895  0.50000131     0.79500
O615        O  0.49994855  0.55185632  0.20848726    -0.69600
O616        O  0.00003723  0.94812778  0.20849644    -0.69800
O617        O  0.94812727  0.49995407  0.20847539    -0.69700
O618        O  0.55185595  0.00003009  0.20850880    -0.69700
O619        O  0.55184085  0.49995081  0.29153901    -0.69600
O620        O  0.94811212  0.00004379  0.29150552    -0.69600
O621        O  0.49993698  0.94813291  0.29152685    -0.69600
O622        O  0.00001752  0.55186170  0.29151772    -0.69800
V623        V  0.99999173  0.49999215  0.21010621     1.35200
V624        V  0.99997688  0.99999720  0.28990812     1.35200
C625        C  0.99998393  0.56936617  0.25000091     0.79700
C626        C  0.99998949  0.93062319  0.25001305     0.79700
C627        C  0.93061241  0.00000049  0.24998497     0.79600
C628        C  0.56935534  0.99998897  0.25002934     0.79500
O629        O  0.52966069  0.75001827  0.07246050    -0.69600
O630        O  0.52970293  0.74996126  0.42754003    -0.69800
O631        O  0.52967677  0.80185396  0.99995783    -0.69700
O632        O  0.52971121  0.69812504  0.50004568    -0.69700
O633        O  0.97026441  0.69813490  0.99996846    -0.69600
O634        O  0.97031416  0.80186599  0.50004010    -0.69600
O635        O  0.97032650  0.75002438  0.42754463    -0.69600
O636        O  0.97028437  0.74997738  0.07246721    -0.69800
V637        V  0.52850903  0.74998734  0.00000186     1.35200
V638        V  0.97147647  0.75000100  0.50000437     1.35200
C639        C  0.49997388  0.74999837  0.09705640     0.79700
C640        C  0.50001429  0.74999202  0.40294981     0.79700
C641        C  0.49997807  0.81937012  0.99999734     0.79600
C642        C  0.49996212  0.68061782  0.00000877     0.79500
O643        O  0.97031926  0.74996959  0.32247284    -0.69600
O644        O  0.97029592  0.75002938  0.17755228    -0.69800
O645        O  0.97029381  0.69813331  0.24996796    -0.69700
O646        O  0.97029863  0.80186552  0.25005890    -0.69700
O647        O  0.52969894  0.80185637  0.24995883    -0.69000
O648        O  0.52969408  0.69812339  0.25002783    -0.69600
O649        O  0.52967221  0.74996501  0.17753256    -0.69600
O650        O  0.52969564  0.75001475  0.32245501    -0.69800
V651        V  0.97145875  0.74999926  0.25001274     1.35200
V652        V  0.52853381  0.74999003  0.24999369     1.35200
C653        C  0.00001045  0.74999167  0.34705644     0.79700
C654        C  0.99998026  0.74999797  0.15294987     0.79700
C655        C  0.99999305  0.68061852  0.24999671     0.79600
C656        C  0.99999936  0.81937078  0.25001087     0.79500
O657        O  0.80182501  0.97029215  0.99996206    -0.69600
O658        O  0.69810710  0.97028077  0.50004507    -0.69800
O659        O  0.74994952  0.97030427  0.42754289    -0.69700
O660        O  0.74998635  0.97030777  0.07246445    -0.69700
O661        O  0.74992965  0.52968411  0.07246695    -0.69600
O662        O  0.74998389  0.52968061  0.42754552    -0.69600
O663        O  0.69808962  0.52969968  0.99996843    -0.69600
O664        O  0.80182059  0.52970415  0.50004355    -0.69800
V665        V  0.74997369  0.97145483  0.50000380     1.35200
V666        V  0.74995617  0.52853348  0.00000605     1.35200
C667        C  0.81933995  0.50000762  0.50000217     0.79700
C668        C  0.68058128  0.50000065  0.00000691     0.79700
C669        C  0.74997191  0.49999250  0.40295171     0.79600
C670        C  0.74996082  0.49999586  0.09705826     0.79500
O671        O  0.69811001  0.52968988  0.24997933    -0.69600
O672        O  0.80184255  0.52969920  0.25003475    -0.69800
O673        O  0.74999599  0.52968347  0.17754607    -0.69700
O674        O  0.74995235  0.52968150  0.32246771    -0.69700
O675        O  0.75002139  0.97030522  0.32246397    -0.69600
O676        O  0.74995111  0.97030712  0.17754249    -0.69600
O677        O  0.80185451  0.97029898  0.24994798    -0.69600
O678        O  0.69812189  0.97028952  0.25005851    -0.69800
V679        V  0.74997604  0.52853188  0.25000689     1.35200
V680        V  0.74998763  0.97145685  0.25000327     1.35200
C681        C  0.68060637  0.99998828  0.25002508     0.79700
C682        C  0.81935861  0.00000057  0.24998571     0.79700
C683        C  0.74996904  0.99999558  0.15295172     0.79600
C684        C  0.74998319  0.99999309  0.34705835     0.79500
C685        C  0.60852223  0.99998608  0.25003955    -0.11100
C686        C  0.64143836  0.99998553  0.25003697    -0.12600
C687        C  0.89144450  0.00000327  0.24997428    -0.11100
C688        C  0.85852772  0.00000349  0.24997532    -0.12600
C689        C  0.99999568  0.89145579  0.25001572    -0.11100
C690        C  0.99999979  0.85853933  0.25001468    -0.12600
C691        C  0.99999053  0.64144998  0.24999566    -0.11100
C692        C  0.99998701  0.60853354  0.24999738    -0.12600
C693        C  0.60850218  0.49997368  0.50000545    -0.11100
C694        C  0.64141266  0.50000281  0.00000657    -0.12600
C695        C  0.89142442  0.50001489  0.50000069    -0.11100
C696        C  0.85850814  0.50001496  0.50000104    -0.12600
C697        C  0.49998025  0.85853876  0.99999449    -0.11100
C698        C  0.49997669  0.89145526  0.99999421    -0.12600
C699        C  0.49995590  0.64144936  0.00001137    -0.11100
C700        C  0.49995007  0.60853296  0.00001146    -0.12600
O701        O  0.00000993  0.94813080  0.95848329    -0.69600
O702        O  0.49990846  0.55185941  0.95849212    -0.69800
O703        O  0.55182301  0.00004057  0.95848883    -0.69700
O704        O  0.94809452  0.49995003  0.95848661    -0.69700
O705        O  0.94809715  0.00004681  0.54151704    -0.69600
O706        O  0.55182578  0.49994402  0.54151927    -0.69600
O707        O  0.00000771  0.55186007  0.54152240    -0.69600
O708        O  0.49991873  0.94813136  0.54151360    -0.69800
V709        V  0.49995863  0.99999514  0.96010199     1.35200
V710        V  0.99996161  0.49999570  0.53990375     1.35200
C711        C  0.49996830  0.93062516  0.49999696     0.79700
C712        C  0.49997197  0.56936818  0.50000858     0.79700
C713        C  0.56932880  0.49999861  0.00000460     0.79600
C714        C  0.93058582  0.49999047  0.00000147     0.79500
O715        O  0.49993634  0.55185525  0.70848453    -0.69600
O716        O  0.00002510  0.94812668  0.70849929    -0.69800
O717        O  0.94811559  0.49995277  0.70850574    -0.69700
O718        O  0.55184430  0.00002883  0.70847840    -0.69700
O719        O  0.55185267  0.49995193  0.79150860    -0.69600
O720        O  0.94812398  0.00004490  0.79153585    -0.69600
O721        O  0.49994931  0.94813399  0.79152974    -0.69600
O722        O  0.00002983  0.55186275  0.79151494    -0.69800
V723        V  0.99998017  0.49999108  0.71010620     1.35200
V724        V  0.99998859  0.99999826  0.78990810     1.35200
C725        C  0.99998383  0.56936617  0.74999729     0.79700
C726        C  0.99998960  0.93062318  0.75001683     0.79700
C727        C  0.93061248  0.00000037  0.75002490     0.79600
C728        C  0.56935542  0.99998880  0.74998938     0.79500
O729        O  0.52970202  0.75002376  0.57246343    -0.69600
O730        O  0.52966158  0.74995580  0.92754304    -0.69800
O731        O  0.52971450  0.80186028  0.49995787    -0.69700
O732        O  0.52966477  0.69812032  0.00004577    -0.69700
O733        O  0.97031091  0.69813606  0.49996880    -0.69600
O734        O  0.97027649  0.80186655  0.00004013    -0.69600
O735        O  0.97028522  0.75002375  0.92754160    -0.69600
O736        O  0.97032566  0.74997813  0.57246425    -0.69800
V737        V  0.52855157  0.74999276  0.50000184     1.35200
V738        V  0.97143392  0.75000042  0.00000430     1.35200
C739        C  0.50001332  0.75000151  0.59705638     0.79700
C740        C  0.49997479  0.74998895  0.90294982     0.79700
C741        C  0.50001343  0.81937297  0.49999731     0.79600
C742        C  0.50000936  0.68062074  0.50000873     0.79500
O743        O  0.97029664  0.74996796  0.82245750    -0.69600
O744        O  0.97031856  0.75003125  0.67753695    -0.69800
O745        O  0.97029368  0.69813338  0.74994885    -0.69700
O746        O  0.97029870  0.80186558  0.75004514    -0.69700
O747        O  0.52969899  0.80185640  0.74997895    -0.69000
O748        O  0.52969401  0.69812341  0.75004057    -0.69600
O749        O  0.52969494  0.74996770  0.67754776    -0.69600
O750        O  0.52967293  0.75001211  0.82247029    -0.69800
V751        V  0.97145872  0.74999934  0.74999709     1.35200
V752        V  0.52853382  0.74999006  0.75000925     1.35200
C753        C  0.99998133  0.74998907  0.84705642     0.79700
C754        C  0.00000951  0.75000070  0.65294981     0.79700
C755        C  0.99999289  0.68061855  0.74999251     0.79600
C756        C  0.99999947  0.81937081  0.75001518     0.79500
O757        O  0.80183985  0.97030377  0.49996215    -0.69600
O758        O  0.69809249  0.97029947  0.00004512    -0.69800
O759        O  0.74993304  0.97030785  0.92754306    -0.69700
O760        O  0.75000278  0.97030429  0.57246472    -0.69700
O761        O  0.74992920  0.52968067  0.57246672    -0.69600
O762        O  0.74998433  0.52968419  0.92754526    -0.69600
O763        O  0.69808816  0.52968106  0.49996849    -0.69600
O764        O  0.80182231  0.52969241  0.00004362    -0.69800
V765        V  0.74995876  0.97145846  0.00000377     1.35200
V766        V  0.74995500  0.52852995  0.50000605     1.35200
C767        C  0.81933356  0.49999104  0.00000222     0.79700
C768        C  0.68058773  0.49997739  0.50000707     0.79700
C769        C  0.74996122  0.49999598  0.90295163     0.79600
C770        C  0.74997146  0.49999259  0.59705827     0.79500
O771        O  0.69811005  0.52969005  0.74995878    -0.69600
O772        O  0.80184259  0.52969935  0.75005235    -0.69800
O773        O  0.75000667  0.52968166  0.67754468    -0.69700
O774        O  0.74994170  0.52968364  0.82246627    -0.69700
O775        O  0.75000510  0.97030722  0.82246526    -0.69600
O776        O  0.74996748  0.97030524  0.67754383    -0.69600
O777        O  0.80185460  0.97029901  0.74997587    -0.69600
O778        O  0.69812197  0.97028963  0.75003351    -0.69800
V779        V  0.74997608  0.52853208  0.75000545     1.35200
V780        V  0.74998770  0.97145691  0.75000463     1.35200
C781        C  0.68060643  0.99998837  0.74999175     0.79700
C782        C  0.81935868  0.00000061  0.75001903     0.79700
C783        C  0.74998305  0.99999312  0.65295172     0.79600
C784        C  0.74996923  0.99999567  0.84705827     0.79500
C785        C  0.60852229  0.99998589  0.74998097    -0.11100
C786        C  0.64143842  0.99998554  0.74998279    -0.12600
C787        C  0.89144456  0.00000324  0.75003289    -0.11100
C788        C  0.85852780  0.00000353  0.75002959    -0.12600
C789        C  0.99999579  0.89145579  0.75002136    -0.11100
C790        C  0.99999991  0.85853935  0.75002064    -0.12600
C791        C  0.99999036  0.64145000  0.74998993    -0.11100
C792        C  0.99998684  0.60853355  0.74999197    -0.12600
C793        C  0.60849619  0.50000180  0.00000568    -0.11100
C794        C  0.64141880  0.49997079  0.50000650    -0.12600
C795        C  0.89141845  0.49998856  0.00000082    -0.11100
C796        C  0.85850203  0.49998859  0.00000112    -0.12600
C797        C  0.50000777  0.85854144  0.49999434    -0.11100
C798        C  0.49998844  0.89145784  0.49999413    -0.12600
C799        C  0.50000297  0.64145212  0.50001129    -0.11100
C800        C  0.49998780  0.60853563  0.50001135    -0.12600
loop_ 
_geom_bond_atom_site_label_1 
_geom_bond_atom_site_label_2 
_geom_bond_distance 
_geom_bond_site_symmetry_2 
_ccdc_geom_bond_type 
O1          V409   1.900       .  S
O1          C511   1.263       .  A
O2          V209   1.900   1_545  S
O2          C112   1.263       .  A
O3            V9   1.900   1_455  S
O3          C213   1.263       .  A
O4          V609   1.900       .  S
O4           C14   1.263   1_565  A
O5          V210   1.900       .  S
O5          C314   1.263       .  A
O6          V410   1.900   1_455  S
O6          C113   1.263       .  A
O7           V10   1.900   1_545  S
O7          C412   1.263       .  A
O8          V610   1.900       .  S
O8           C11   1.263   1_554  A
V9          O401   1.900   1_655  S
V9          O202   1.900       .  S
V9          O604   1.900       .  S
V9          V710   2.091       .  T
V10         O205   1.900   1_565  S
V10         O406   1.900       .  S
V10         O608   1.900       .  S
V10         V709   2.091   1_554  T
C11         O501   1.263   1_655  A
C11          C98   1.434       .  S
C12         O102   1.263   1_554  A
C12         O407   1.263       .  A
C12         C100   1.434       .  S
C13         O203   1.263   1_565  A
C13         O106   1.263       .  A
C13          C93   1.434       .  S
C14         O305   1.263       .  A
C14          C95   1.434       .  S
O15         V423   1.900   1_545  S
O15         C425   1.263       .  A
O16         V223   1.900       .  S
O16          C26   1.263       .  A
O17          V23   1.900       .  S
O17         C227   1.263   1_565  A
O18         V623   1.900   1_455  S
O18          C28   1.263       .  A
O19         V624   1.900   1_455  S
O19         C228   1.263       .  A
O20          V24   1.900       .  S
O20          C27   1.263       .  A
O21         V424   1.900       .  S
O21         C426   1.263       .  A
O22         V224   1.900   1_545  S
O22          C25   1.263       .  A
V23         O415   1.900   1_565  S
V23         O216   1.900       .  S
V23         O618   1.900   1_565  S
V23         V224   2.091       .  T
V24         O619   1.900       .  S
V24         O421   1.900       .  S
V24         O222   1.900       .  S
V24         V223   2.091       .  T
C25         O415   1.263       .  A
C25          C92   1.434       .  S
C26         O421   1.263       .  A
C26          C89   1.434       .  S
C27         O217   1.263       .  A
C27          C87   1.434       .  S
C28         O219   1.263       .  A
C28          C85   1.434       .  S
O29          V37   1.899       .  S
O29          C39   1.264   1_455  A
O30         V137   1.899       .  S
O30          C40   1.264       .  A
O31          V37   1.900   1_556  S
O31          C41   1.263   1_455  A
O32         V137   1.900       .  S
O32         C142   1.263       .  A
O33         V138   1.900   1_556  S
O33         C442   1.263   1_556  A
O34          V38   1.900       .  S
O34         C541   1.263       .  A
O35          V38   1.899       .  S
O35         C440   1.264       .  A
O36         V138   1.899       .  S
O36         C439   1.264       .  A
V37         O130   1.899   1_554  S
V37         O132   1.900       .  S
V37         V538   2.090   1_455  T
V38         O133   1.900       .  S
V38         O136   1.899       .  S
V38         V537   2.090       .  T
C39         O436   1.264       .  A
C39         C454   1.465       .  S
C40         O435   1.264   1_455  A
C40         C453   1.465       .  S
C41         O534   1.263   1_556  A
C41          C97   1.434       .  S
C42         O132   1.263   1_655  A
C42         O433   1.263   1_554  A
C42          C99   1.434       .  S
O43          V51   1.899       .  S
O43          C53   1.264       .  A
O44          V51   1.899       .  S
O44          C54   1.264       .  A
O45          V51   1.900       .  S
O45          C55   1.263       .  A
O46          V51   1.900       .  S
O46          C56   1.263       .  A
O47          V52   1.900       .  S
O47         C456   1.263   1_455  A
O48          V52   1.900       .  S
O48         C455   1.263   1_455  A
O49          V52   1.899       .  S
O49         C454   1.264   1_455  A
O50          V52   1.899       .  S
O50         C453   1.264       .  A
V51         V452   2.090       .  T
V52         V451   2.090   1_455  T
C53         O450   1.264       .  A
C53         C440   1.465       .  S
C54         O449   1.264       .  A
C54         C439   1.465       .  S
C55         O448   1.263       .  A
C55          C91   1.434       .  S
C56         O447   1.263       .  A
C56          C90   1.434       .  S
O57         V165   1.900   1_556  S
O57         C367   1.263   1_556  A
O58          V65   1.900       .  S
O58         C368   1.263       .  A
O59          V65   1.899       .  S
O59         C269   1.264       .  A
O60         V165   1.899       .  S
O60         C270   1.264       .  A
O61          V66   1.899       .  S
O61          C70   1.264   1_545  A
O62         V166   1.899       .  S
O62          C69   1.264   1_545  A
O63          V66   1.900   1_556  S
O63          C68   1.263   1_556  A
O64         V166   1.900       .  S
O64          C67   1.263       .  A
V65         O157   1.900       .  S
V65         O160   1.899       .  S
V65         V366   2.090       .  T
V66         O162   1.899   1_554  S
V66         O164   1.900       .  S
V66         V365   2.090   1_545  T
C67         O357   1.263   1_545  A
C67          C96   1.434       .  S
C68         O358   1.263   1_545  A
C68          C94   1.434       .  S
C69         O259   1.264       .  A
C69         C284   1.465       .  S
C70         O260   1.264       .  A
C70         C283   1.465       .  S
O71          V79   1.900       .  S
O71         C281   1.263   1_545  A
O72          V79   1.900       .  S
O72         C282   1.263       .  A
O73          V79   1.899       .  S
O73         C283   1.264   1_545  A
O74          V79   1.899       .  S
O74         C284   1.264   1_545  A
O75          V80   1.899       .  S
O75          C84   1.264       .  A
O76          V80   1.899       .  S
O76          C83   1.264       .  A
O77          V80   1.900       .  S
O77          C82   1.263       .  A
O78          V80   1.900       .  S
O78          C81   1.263       .  A
V79         V280   2.090   1_545  T
V80         V279   2.090       .  T
C81         O271   1.263       .  A
C81          C86   1.434       .  S
C82         O272   1.263       .  A
C82          C88   1.434       .  S
C83         O273   1.264       .  A
C83         C270   1.465       .  S
C84         O274   1.264       .  A
C84         C269   1.465       .  S
C85          C86   1.205       .  T
C87          C88   1.205       .  T
C89          C90   1.205       .  T
C91          C92   1.205       .  T
C93         C194   1.205       .  T
C94         C193   1.205       .  T
C95          C96   1.205       .  T
C97          C98   1.205       .  T
C99         C100   1.205       .  T
O101        V509   1.900       .  S
O101        C411   1.263       .  A
O102        V309   1.900   1_545  S
O103        V109   1.900   1_455  S
O103        C313   1.263   1_556  A
O104        V709   1.900       .  S
O104        C114   1.263   1_556  A
O105        V310   1.900       .  S
O105        C214   1.263       .  A
O106        V510   1.900   1_455  S
O107        V110   1.900   1_545  S
O107        C512   1.263       .  A
O108        V710   1.900       .  S
O108        C111   1.263       .  A
V109        O501   1.900   1_655  S
V109        O302   1.900       .  S
V109        O704   1.900       .  S
V109        V610   2.091   1_556  T
V110        O305   1.900   1_565  S
V110        O506   1.900       .  S
V110        O708   1.900       .  S
V110        V609   2.091       .  T
C111        O401   1.263   1_655  A
C111        C198   1.434       .  S
C112        O507   1.263   1_655  A
C112        C200   1.434       .  S
C113        O303   1.263   1_564  A
C113        C193   1.434   1_565  S
C114        O205   1.263   1_565  A
C114        C195   1.434       .  S
O115        V523   1.900   1_545  S
O115        C525   1.263       .  A
O116        V323   1.900       .  S
O116        C126   1.263       .  A
O117        V123   1.900       .  S
O117        C327   1.263   1_565  A
O118        V723   1.900   1_455  S
O118        C128   1.263       .  A
O119        V724   1.900   1_455  S
O119        C328   1.263       .  A
O120        V124   1.900       .  S
O120        C127   1.263       .  A
O121        V524   1.900       .  S
O121        C526   1.263       .  A
O122        V324   1.900   1_545  S
O122        C125   1.263       .  A
V123        O515   1.900   1_565  S
V123        O316   1.900       .  S
V123        O718   1.900   1_565  S
V123        V324   2.091       .  T
V124        O719   1.900       .  S
V124        O521   1.900       .  S
V124        O322   1.900       .  S
V124        V323   2.091       .  T
C125        O515   1.263       .  A
C125        C192   1.434       .  S
C126        O521   1.263       .  A
C126        C189   1.434       .  S
C127        O317   1.263       .  A
C127        C187   1.434       .  S
C128        O319   1.263       .  A
C128        C185   1.434       .  S
O129        V137   1.899       .  S
O129        C139   1.264       .  A
O130        C140   1.264   1_455  A
O131        V137   1.900       .  S
O131        C141   1.263       .  A
O133        C542   1.263       .  A
O134        V138   1.900       .  S
O134        C441   1.263   1_554  A
O135        V138   1.899   1_556  S
O135        C540   1.264       .  A
O136        C539   1.264       .  A
V137        V438   2.090   1_455  T
V138        V437   2.090       .  T
C139        O536   1.264   1_455  A
C139        C554   1.465       .  S
C140        O535   1.264       .  A
C140        C553   1.465       .  S
C141        O434   1.263   1_455  A
C141        C197   1.434       .  S
C142        O533   1.263   1_455  A
C142        C199   1.434       .  S
O143        V151   1.899       .  S
O143        C153   1.264       .  A
O144        V151   1.899       .  S
O144        C154   1.264       .  A
O145        V151   1.900       .  S
O145        C155   1.263       .  A
O146        V151   1.900       .  S
O146        C156   1.263       .  A
O147        V152   1.900       .  S
O147        C556   1.263   1_455  A
O148        V152   1.900       .  S
O148        C555   1.263   1_455  A
O149        V152   1.899       .  S
O149        C554   1.264       .  A
O150        V152   1.899       .  S
O150        C553   1.264   1_455  A
V151        V552   2.090       .  T
V152        V551   2.090   1_455  T
C153        O550   1.264       .  A
C153        C540   1.465       .  S
C154        O549   1.264       .  A
C154        C539   1.465       .  S
C155        O548   1.263       .  A
C155        C191   1.434       .  S
C156        O547   1.263       .  A
C156        C190   1.434       .  S
O157        C267   1.263       .  A
O158        V165   1.900       .  S
O158        C268   1.263       .  A
O159        V165   1.899   1_556  S
O159        C369   1.264       .  A
O160        C370   1.264       .  A
O161        V166   1.899       .  S
O161        C170   1.264   1_545  A
O162        C169   1.264   1_545  A
O163        V166   1.900       .  S
O163        C168   1.263   1_545  A
O164        C167   1.263   1_545  A
V165        V266   2.090       .  T
V166        V265   2.090   1_545  T
C167        O257   1.263   1_554  A
C167        C196   1.434       .  S
C168        O258   1.263       .  A
C168        C194   1.434       .  S
C169        O359   1.264       .  A
C169        C384   1.465       .  S
C170        O360   1.264       .  A
C170        C383   1.465       .  S
O171        V179   1.900       .  S
O171        C381   1.263   1_545  A
O172        V179   1.900       .  S
O172        C382   1.263       .  A
O173        V179   1.899       .  S
O173        C383   1.264   1_545  A
O174        V179   1.899       .  S
O174        C384   1.264   1_545  A
O175        V180   1.899       .  S
O175        C184   1.264       .  A
O176        V180   1.899       .  S
O176        C183   1.264       .  A
O177        V180   1.900       .  S
O177        C182   1.263       .  A
O178        V180   1.900       .  S
O178        C181   1.263       .  A
V179        V380   2.090   1_545  T
V180        V379   2.090       .  T
C181        O371   1.263       .  A
C181        C186   1.434       .  S
C182        O372   1.263       .  A
C182        C188   1.434       .  S
C183        O373   1.264       .  A
C183        C370   1.465       .  S
C184        O374   1.264       .  A
C184        C369   1.465       .  S
C185        C186   1.205       .  T
C187        C188   1.205       .  T
C189        C190   1.205       .  T
C191        C192   1.205       .  T
C195        C196   1.205       .  T
C197        C198   1.205   1_455  T
C199        C200   1.205   1_455  T
O201        V609   1.900       .  S
O201        C711   1.263       .  A
O202        C312   1.263       .  A
O203        V209   1.900   1_445  S
O204        V409   1.900       .  S
O204        C214   1.263       .  A
O206        V610   1.900   1_455  S
O206        C313   1.263       .  A
O207        V210   1.900       .  S
O207        C612   1.263       .  A
O208        V410   1.900       .  S
O208        C211   1.263   1_554  A
V209        O601   1.900   1_655  S
V209        O404   1.900       .  S
V209        V510   2.091       .  T
V210        O606   1.900       .  S
V210        O408   1.900       .  S
V210        V509   2.091   1_554  T
C211        O701   1.263   1_655  A
C211        C298   1.434       .  S
C212        O302   1.263   1_554  A
C212        O607   1.263       .  A
C212        C300   1.434       .  S
C213        O306   1.263       .  A
C213        C293   1.434       .  S
C214        C295   1.434       .  S
O215        V623   1.900       .  S
O215        C625   1.263       .  A
O216        C226   1.263       .  A
O217        V223   1.900       .  S
O218        V423   1.900   1_445  S
O218        C228   1.263   1_545  A
O219        V424   1.900   1_455  S
O220        V224   1.900   1_545  S
O220        C227   1.263       .  A
O221        V624   1.900       .  S
O221        C626   1.263       .  A
O222        C225   1.263       .  A
V223        O615   1.900       .  S
V223        O418   1.900       .  S
V224        O419   1.900       .  S
V224        O621   1.900       .  S
C225        O615   1.263       .  A
C225        C292   1.434       .  S
C226        O621   1.263       .  A
C226        C289   1.434       .  S
C227        C287   1.434       .  S
C228        C285   1.434       .  S
O229        V237   1.899       .  S
O229        C239   1.264   1_455  A
O230        V337   1.899       .  S
O230        C240   1.264       .  A
O231        V237   1.900   1_556  S
O231        C241   1.263   1_455  A
O232        V337   1.900       .  S
O232        C342   1.263       .  A
O233        V338   1.900   1_556  S
O233        C642   1.263   1_556  A
O234        V238   1.900       .  S
O234        C741   1.263       .  A
O235        V238   1.899       .  S
O235        C640   1.264       .  A
O236        V338   1.899       .  S
O236        C639   1.264       .  A
V237        O330   1.899   1_554  S
V237        O332   1.900       .  S
V237        V738   2.090   1_455  T
V238        O333   1.900       .  S
V238        O336   1.899       .  S
V238        V737   2.090       .  T
C239        O636   1.264       .  A
C239        C654   1.465       .  S
C240        O635   1.264   1_455  A
C240        C653   1.465       .  S
C241        O734   1.263   1_556  A
C241        C297   1.434       .  S
C242        O332   1.263   1_655  A
C242        O633   1.263   1_554  A
C242        C299   1.434       .  S
O243        V251   1.899       .  S
O243        C253   1.264       .  A
O244        V251   1.899       .  S
O244        C254   1.264       .  A
O245        V251   1.900       .  S
O245        C255   1.263       .  A
O246        V251   1.900       .  S
O246        C256   1.263       .  A
O247        V252   1.900       .  S
O247        C656   1.263   1_455  A
O248        V252   1.900       .  S
O248        C655   1.263   1_455  A
O249        V252   1.899       .  S
O249        C654   1.264   1_455  A
O250        V252   1.899       .  S
O250        C653   1.264       .  A
V251        V652   2.090       .  T
V252        V651   2.090   1_455  T
C253        O650   1.264       .  A
C253        C640   1.465       .  S
C254        O649   1.264       .  A
C254        C639   1.465       .  S
C255        O648   1.263       .  A
C255        C291   1.434       .  S
C256        O647   1.263       .  A
C256        C290   1.434       .  S
O257        V365   1.900   1_556  S
O258        V265   1.900       .  S
O259        V265   1.899       .  S
O260        V365   1.899       .  S
O261        V266   1.899       .  S
O261        C270   1.264       .  A
O262        V366   1.899       .  S
O262        C269   1.264       .  A
O263        V266   1.900   1_556  S
O263        C268   1.263   1_556  A
O264        V366   1.900       .  S
O264        C267   1.263       .  A
V265        O357   1.900       .  S
V265        O360   1.899       .  S
V266        O362   1.899   1_554  S
V266        O364   1.900       .  S
C267        C296   1.434       .  S
C268        C294   1.434       .  S
O271        V279   1.900       .  S
O272        V279   1.900       .  S
O273        V279   1.899       .  S
O274        V279   1.899       .  S
O275        V280   1.899       .  S
O275        C284   1.264       .  A
O276        V280   1.899       .  S
O276        C283   1.264       .  A
O277        V280   1.900       .  S
O277        C282   1.263   1_565  A
O278        V280   1.900       .  S
O278        C281   1.263       .  A
C281        C286   1.434       .  S
C282        C288   1.434       .  S
C285        C286   1.205       .  T
C287        C288   1.205       .  T
C289        C290   1.205       .  T
C291        C292   1.205       .  T
C293        C394   1.205       .  T
C294        C393   1.205       .  T
C295        C296   1.205       .  T
C297        C298   1.205       .  T
C299        C300   1.205       .  T
O301        V709   1.900       .  S
O301        C611   1.263       .  A
O303        V309   1.900   1_445  S
O304        V509   1.900       .  S
O304        C314   1.263   1_556  A
O306        V710   1.900   1_455  S
O307        V310   1.900       .  S
O307        C712   1.263       .  A
O308        V510   1.900       .  S
O308        C311   1.263       .  A
V309        O701   1.900   1_655  S
V309        O504   1.900       .  S
V309        V410   2.091   1_556  T
V310        O706   1.900       .  S
V310        O508   1.900       .  S
V310        V409   2.091       .  T
C311        O601   1.263   1_655  A
C311        C398   1.434       .  S
C312        O707   1.263   1_655  A
C312        C400   1.434       .  S
C313        C393   1.434       .  S
C314        C395   1.434       .  S
O315        V723   1.900       .  S
O315        C725   1.263       .  A
O316        C326   1.263       .  A
O317        V323   1.900       .  S
O318        V523   1.900   1_445  S
O318        C328   1.263   1_545  A
O319        V524   1.900   1_455  S
O320        V324   1.900   1_545  S
O320        C327   1.263       .  A
O321        V724   1.900       .  S
O321        C726   1.263       .  A
O322        C325   1.263       .  A
V323        O715   1.900       .  S
V323        O518   1.900       .  S
V324        O519   1.900       .  S
V324        O721   1.900       .  S
C325        O715   1.263       .  A
C325        C392   1.434       .  S
C326        O721   1.263       .  A
C326        C389   1.434       .  S
C327        C387   1.434       .  S
C328        C385   1.434       .  S
O329        V337   1.899       .  S
O329        C339   1.264       .  A
O330        C340   1.264   1_455  A
O331        V337   1.900       .  S
O331        C341   1.263       .  A
O333        C742   1.263       .  A
O334        V338   1.900       .  S
O334        C641   1.263   1_554  A
O335        V338   1.899   1_556  S
O335        C740   1.264       .  A
O336        C739   1.264       .  A
V337        V638   2.090   1_455  T
V338        V637   2.090       .  T
C339        O736   1.264   1_455  A
C339        C754   1.465       .  S
C340        O735   1.264       .  A
C340        C753   1.465       .  S
C341        O634   1.263   1_455  A
C341        C397   1.434       .  S
C342        O733   1.263   1_455  A
C342        C399   1.434       .  S
O343        V351   1.899       .  S
O343        C353   1.264       .  A
O344        V351   1.899       .  S
O344        C354   1.264       .  A
O345        V351   1.900       .  S
O345        C355   1.263       .  A
O346        V351   1.900       .  S
O346        C356   1.263       .  A
O347        V352   1.900       .  S
O347        C756   1.263   1_455  A
O348        V352   1.900       .  S
O348        C755   1.263   1_455  A
O349        V352   1.899       .  S
O349        C754   1.264       .  A
O350        V352   1.899       .  S
O350        C753   1.264   1_455  A
V351        V752   2.090       .  T
V352        V751   2.090   1_455  T
C353        O750   1.264       .  A
C353        C740   1.465       .  S
C354        O749   1.264       .  A
C354        C739   1.465       .  S
C355        O748   1.263       .  A
C355        C391   1.434       .  S
C356        O747   1.263       .  A
C356        C390   1.434       .  S
O358        V365   1.900       .  S
O359        V365   1.899   1_556  S
O361        V366   1.899       .  S
O361        C370   1.264       .  A
O362        C369   1.264       .  A
O363        V366   1.900       .  S
O363        C368   1.263       .  A
O364        C367   1.263       .  A
C367        C396   1.434       .  S
C368        C394   1.434       .  S
O371        V379   1.900       .  S
O372        V379   1.900       .  S
O373        V379   1.899       .  S
O374        V379   1.899       .  S
O375        V380   1.899       .  S
O375        C384   1.264       .  A
O376        V380   1.899       .  S
O376        C383   1.264       .  A
O377        V380   1.900       .  S
O377        C382   1.263   1_565  A
O378        V380   1.900       .  S
O378        C381   1.263       .  A
C381        C386   1.434       .  S
C382        C388   1.434       .  S
C385        C386   1.205       .  T
C387        C388   1.205       .  T
C389        C390   1.205       .  T
C391        C392   1.205       .  T
C395        C396   1.205       .  T
C397        C398   1.205   1_455  T
C399        C400   1.205   1_455  T
O402        V609   1.900   1_545  S
O402        C512   1.263       .  A
O403        V409   1.900       .  S
O403        C613   1.263       .  A
O404        C414   1.263   1_565  A
O405        V610   1.900       .  S
O405        C714   1.263       .  A
O406        C513   1.263       .  A
O407        V410   1.900   1_545  S
O408        C411   1.263   1_554  A
V409        O602   1.900       .  S
V410        O605   1.900   1_565  S
C411        C498   1.434       .  S
C412        O502   1.263   1_554  A
C412        C500   1.434       .  S
C413        O603   1.263   1_565  A
C413        O506   1.263       .  A
C413        C493   1.434       .  S
C414        O705   1.263       .  A
C414        C495   1.434       .  S
O416        V623   1.900   1_455  S
O416        C426   1.263   1_455  A
O417        V423   1.900       .  S
O417        C627   1.263   1_565  A
O418        C428   1.263       .  A
O419        C628   1.263       .  A
O420        V424   1.900       .  S
O420        C427   1.263       .  A
O422        V624   1.900   1_445  S
O422        C425   1.263   1_455  A
V423        O616   1.900   1_655  S
V423        V624   2.091       .  T
V424        O622   1.900   1_655  S
V424        V623   2.091       .  T
C425        C492   1.434       .  S
C426        C489   1.434       .  S
C427        O617   1.263       .  A
C427        C487   1.434       .  S
C428        O619   1.263       .  A
C428        C485   1.434       .  S
O429        V437   1.899       .  S
O429        C439   1.264       .  A
O430        V537   1.899       .  S
O430        C440   1.264       .  A
O431        V437   1.900   1_556  S
O431        C441   1.263       .  A
O432        V537   1.900       .  S
O432        C542   1.263       .  A
O433        V538   1.900   1_556  S
O434        V438   1.900       .  S
O435        V438   1.899       .  S
O436        V538   1.899       .  S
V437        O530   1.899   1_554  S
V437        O532   1.900       .  S
V438        O533   1.900       .  S
V438        O536   1.899       .  S
C441        C497   1.434       .  S
C442        O532   1.263       .  A
C442        C499   1.434       .  S
O443        V451   1.899       .  S
O443        C453   1.264   1_655  A
O444        V451   1.899       .  S
O444        C454   1.264       .  A
O445        V451   1.900       .  S
O445        C455   1.263       .  A
O446        V451   1.900       .  S
O446        C456   1.263       .  A
O447        V452   1.900       .  S
O448        V452   1.900       .  S
O449        V452   1.899       .  S
O450        V452   1.899       .  S
C455        C491   1.434       .  S
C456        C490   1.434       .  S
O457        V565   1.900   1_556  S
O457        C767   1.263   1_556  A
O458        V465   1.900       .  S
O458        C768   1.263       .  A
O459        V465   1.899       .  S
O459        C669   1.264       .  A
O460        V565   1.899       .  S
O460        C670   1.264       .  A
O461        V466   1.899       .  S
O461        C470   1.264   1_545  A
O462        V566   1.899       .  S
O462        C469   1.264   1_545  A
O463        V466   1.900   1_556  S
O463        C468   1.263   1_556  A
O464        V566   1.900       .  S
O464        C467   1.263       .  A
V465        O557   1.900       .  S
V465        O560   1.899       .  S
V465        V766   2.090       .  T
V466        O562   1.899   1_554  S
V466        O564   1.900       .  S
V466        V765   2.090   1_545  T
C467        O757   1.263   1_545  A
C467        C496   1.434       .  S
C468        O758   1.263   1_545  A
C468        C494   1.434       .  S
C469        O659   1.264       .  A
C469        C684   1.465       .  S
C470        O660   1.264       .  A
C470        C683   1.465       .  S
O471        V479   1.900       .  S
O471        C681   1.263   1_545  A
O472        V479   1.900       .  S
O472        C682   1.263       .  A
O473        V479   1.899       .  S
O473        C683   1.264   1_545  A
O474        V479   1.899       .  S
O474        C684   1.264   1_545  A
O475        V480   1.899       .  S
O475        C484   1.264       .  A
O476        V480   1.899       .  S
O476        C483   1.264       .  A
O477        V480   1.900       .  S
O477        C482   1.263       .  A
O478        V480   1.900       .  S
O478        C481   1.263       .  A
V479        V680   2.090   1_545  T
V480        V679   2.090       .  T
C481        O671   1.263       .  A
C481        C486   1.434       .  S
C482        O672   1.263       .  A
C482        C488   1.434       .  S
C483        O673   1.264       .  A
C483        C670   1.465       .  S
C484        O674   1.264       .  A
C484        C669   1.465       .  S
C485        C486   1.205       .  T
C487        C488   1.205       .  T
C489        C490   1.205       .  T
C491        C492   1.205       .  T
C493        C594   1.205       .  T
C494        C593   1.205       .  T
C495        C496   1.205       .  T
C497        C498   1.205       .  T
C499        C500   1.205       .  T
O502        V709   1.900   1_545  S
O503        V509   1.900       .  S
O503        C713   1.263   1_556  A
O504        C514   1.263   1_556  A
O505        V710   1.900       .  S
O505        C614   1.263       .  A
O507        V510   1.900   1_445  S
O508        C511   1.263       .  A
V509        O702   1.900       .  S
V510        O705   1.900   1_565  S
C511        C598   1.434       .  S
C512        C600   1.434       .  S
C513        O703   1.263   1_564  A
C513        C593   1.434   1_565  S
C514        O605   1.263   1_565  A
C514        C595   1.434       .  S
O516        V723   1.900   1_455  S
O516        C526   1.263   1_455  A
O517        V523   1.900       .  S
O517        C727   1.263   1_565  A
O518        C528   1.263       .  A
O519        C728   1.263       .  A
O520        V524   1.900       .  S
O520        C527   1.263       .  A
O522        V724   1.900   1_445  S
O522        C525   1.263   1_455  A
V523        O716   1.900   1_655  S
V523        V724   2.091       .  T
V524        O722   1.900   1_655  S
V524        V723   2.091       .  T
C525        C592   1.434       .  S
C526        C589   1.434       .  S
C527        O717   1.263       .  A
C527        C587   1.434       .  S
C528        O719   1.263       .  A
C528        C585   1.434       .  S
O529        V537   1.899       .  S
O529        C539   1.264       .  A
O530        C540   1.264       .  A
O531        V537   1.900       .  S
O531        C541   1.263       .  A
O534        V538   1.900       .  S
O535        V538   1.899   1_556  S
C541        C597   1.434       .  S
C542        C599   1.434       .  S
O543        V551   1.899       .  S
O543        C553   1.264       .  A
O544        V551   1.899       .  S
O544        C554   1.264   1_655  A
O545        V551   1.900       .  S
O545        C555   1.263       .  A
O546        V551   1.900       .  S
O546        C556   1.263       .  A
O547        V552   1.900       .  S
O548        V552   1.900       .  S
O549        V552   1.899       .  S
O550        V552   1.899       .  S
C555        C591   1.434       .  S
C556        C590   1.434       .  S
O557        C667   1.263       .  A
O558        V565   1.900       .  S
O558        C668   1.263       .  A
O559        V565   1.899   1_556  S
O559        C769   1.264       .  A
O560        C770   1.264       .  A
O561        V566   1.899       .  S
O561        C570   1.264   1_545  A
O562        C569   1.264   1_545  A
O563        V566   1.900       .  S
O563        C568   1.263   1_545  A
O564        C567   1.263   1_545  A
V565        V666   2.090       .  T
V566        V665   2.090   1_545  T
C567        O657   1.263   1_554  A
C567        C596   1.434       .  S
C568        O658   1.263       .  A
C568        C594   1.434       .  S
C569        O759   1.264       .  A
C569        C784   1.465       .  S
C570        O760   1.264       .  A
C570        C783   1.465       .  S
O571        V579   1.900       .  S
O571        C781   1.263   1_545  A
O572        V579   1.900       .  S
O572        C782   1.263       .  A
O573        V579   1.899       .  S
O573        C783   1.264   1_545  A
O574        V579   1.899       .  S
O574        C784   1.264   1_545  A
O575        V580   1.899       .  S
O575        C584   1.264       .  A
O576        V580   1.899       .  S
O576        C583   1.264       .  A
O577        V580   1.900       .  S
O577        C582   1.263       .  A
O578        V580   1.900       .  S
O578        C581   1.263       .  A
V579        V780   2.090   1_545  T
V580        V779   2.090       .  T
C581        O771   1.263       .  A
C581        C586   1.434       .  S
C582        O772   1.263       .  A
C582        C588   1.434       .  S
C583        O773   1.264       .  A
C583        C770   1.465       .  S
C584        O774   1.264       .  A
C584        C769   1.465       .  S
C585        C586   1.205       .  T
C587        C588   1.205       .  T
C589        C590   1.205       .  T
C591        C592   1.205       .  T
C595        C596   1.205       .  T
C597        C598   1.205       .  T
C599        C600   1.205       .  T
O602        C712   1.263       .  A
O603        V609   1.900   1_545  S
O604        C614   1.263       .  A
O606        C713   1.263       .  A
O607        V610   1.900       .  S
O608        C611   1.263   1_554  A
C611        C698   1.434       .  S
C612        O702   1.263   1_554  A
C612        C700   1.434       .  S
C613        O706   1.263       .  A
C613        C693   1.434       .  S
C614        C695   1.434       .  S
O616        C626   1.263   1_455  A
O617        V623   1.900       .  S
O618        C628   1.263   1_545  A
O620        V624   1.900   1_545  S
O620        C627   1.263       .  A
O622        C625   1.263   1_455  A
C625        C692   1.434       .  S
C626        C689   1.434       .  S
C627        C687   1.434       .  S
C628        C685   1.434       .  S
O629        V637   1.899       .  S
O629        C639   1.264       .  A
O630        V737   1.899       .  S
O630        C640   1.264       .  A
O631        V637   1.900   1_556  S
O631        C641   1.263       .  A
O632        V737   1.900       .  S
O632        C742   1.263       .  A
O633        V738   1.900   1_556  S
O634        V638   1.900       .  S
O635        V638   1.899       .  S
O636        V738   1.899       .  S
V637        O730   1.899   1_554  S
V637        O732   1.900       .  S
V638        O733   1.900       .  S
V638        O736   1.899       .  S
C641        C697   1.434       .  S
C642        O732   1.263       .  A
C642        C699   1.434       .  S
O643        V651   1.899       .  S
O643        C653   1.264   1_655  A
O644        V651   1.899       .  S
O644        C654   1.264       .  A
O645        V651   1.900       .  S
O645        C655   1.263       .  A
O646        V651   1.900       .  S
O646        C656   1.263       .  A
O647        V652   1.900       .  S
O648        V652   1.900       .  S
O649        V652   1.899       .  S
O650        V652   1.899       .  S
C655        C691   1.434       .  S
C656        C690   1.434       .  S
O657        V765   1.900   1_556  S
O658        V665   1.900       .  S
O659        V665   1.899       .  S
O660        V765   1.899       .  S
O661        V666   1.899       .  S
O661        C670   1.264       .  A
O662        V766   1.899       .  S
O662        C669   1.264       .  A
O663        V666   1.900   1_556  S
O663        C668   1.263   1_556  A
O664        V766   1.900       .  S
O664        C667   1.263       .  A
V665        O757   1.900       .  S
V665        O760   1.899       .  S
V666        O762   1.899   1_554  S
V666        O764   1.900       .  S
C667        C696   1.434       .  S
C668        C694   1.434       .  S
O671        V679   1.900       .  S
O672        V679   1.900       .  S
O673        V679   1.899       .  S
O674        V679   1.899       .  S
O675        V680   1.899       .  S
O675        C684   1.264       .  A
O676        V680   1.899       .  S
O676        C683   1.264       .  A
O677        V680   1.900       .  S
O677        C682   1.263   1_565  A
O678        V680   1.900       .  S
O678        C681   1.263       .  A
C681        C686   1.434       .  S
C682        C688   1.434       .  S
C685        C686   1.205       .  T
C687        C688   1.205       .  T
C689        C690   1.205       .  T
C691        C692   1.205       .  T
C693        C794   1.205       .  T
C694        C793   1.205       .  T
C695        C696   1.205       .  T
C697        C698   1.205       .  T
C699        C700   1.205       .  T
O703        V709   1.900   1_545  S
O704        C714   1.263   1_556  A
O707        V710   1.900   1_455  S
O708        C711   1.263       .  A
C711        C798   1.434       .  S
C712        C800   1.434       .  S
C713        C793   1.434       .  S
C714        C795   1.434       .  S
O716        C726   1.263   1_455  A
O717        V723   1.900       .  S
O718        C728   1.263   1_545  A
O720        V724   1.900   1_545  S
O720        C727   1.263       .  A
O722        C725   1.263   1_455  A
C725        C792   1.434       .  S
C726        C789   1.434       .  S
C727        C787   1.434       .  S
C728        C785   1.434       .  S
O729        V737   1.899       .  S
O729        C739   1.264       .  A
O730        C740   1.264       .  A
O731        V737   1.900       .  S
O731        C741   1.263       .  A
O734        V738   1.900       .  S
O735        V738   1.899   1_556  S
C741        C797   1.434       .  S
C742        C799   1.434       .  S
O743        V751   1.899       .  S
O743        C753   1.264       .  A
O744        V751   1.899       .  S
O744        C754   1.264   1_655  A
O745        V751   1.900       .  S
O745        C755   1.263       .  A
O746        V751   1.900       .  S
O746        C756   1.263       .  A
O747        V752   1.900       .  S
O748        V752   1.900       .  S
O749        V752   1.899       .  S
O750        V752   1.899       .  S
C755        C791   1.434       .  S
C756        C790   1.434       .  S
O758        V765   1.900       .  S
O759        V765   1.899   1_556  S
O761        V766   1.899       .  S
O761        C770   1.264       .  A
O762        C769   1.264       .  A
O763        V766   1.900       .  S
O763        C768   1.263       .  A
O764        C767   1.263       .  A
C767        C796   1.434       .  S
C768        C794   1.434       .  S
O771        V779   1.900       .  S
O772        V779   1.900       .  S
O773        V779   1.899       .  S
O774        V779   1.899       .  S
O775        V780   1.899       .  S
O775        C784   1.264       .  A
O776        V780   1.899       .  S
O776        C783   1.264       .  A
O777        V780   1.900       .  S
O777        C782   1.263   1_565  A
O778        V780   1.900       .  S
O778        C781   1.263       .  A
C781        C786   1.434       .  S
C782        C788   1.434       .  S
C785        C786   1.205       .  T
C787        C788   1.205       .  T
C789        C790   1.205       .  T
C791        C792   1.205       .  T
C795        C796   1.205       .  T
C797        C798   1.205       .  T
C799        C800   1.205       .  T
