geometry optimzed in LAMMPS
_audit_creation_date              2020-11-30 
_audit_creation_method            'lammps2cif' 
_symmetry_space_group_name_H-M    'P1' 
_symmetry_Int_Tables_number       1 
_symmetry_cell_setting            triclinic 
loop_ 
_symmetry_equiv_pos_as_xyz 
  x,y,z 
_cell_length_a                    28.61276368 
_cell_length_b                    28.929982402245816 
_cell_length_c                    28.526455287671983 
_cell_angle_alpha                 90.06456747278133 
_cell_angle_beta                  89.94534690478511 
_cell_angle_gamma                 90.15658147610854 
loop_ 
_atom_site_label 
_atom_site_type_symbol 
_atom_site_fract_x 
_atom_site_fract_y 
_atom_site_fract_z 
_atom_site_charge 
C1          C  0.41303776  0.39044625  0.10991244     0.41700
N2          N  0.42579350  0.43790676  0.05438250     0.00500
C3          C  0.61388537  0.44519179  0.40430393    -0.07300
H4          H  0.65776911  0.46119165  0.07895720     0.06000
C5          C  0.55927702  0.60814716  0.08546959    -0.07700
Co6        Co  0.50784854  0.41135596  0.99688848     0.74200
N7          N  0.59337440  0.44818892  0.04202287    -0.26900
Co8        Co  0.58742179  0.50088963  0.49356081     0.74100
C9          C  0.60411084  0.59343832  0.10409750     0.41800
N10         N  0.44917039  0.57305524  0.05620206     0.00200
N11         N  0.58639477  0.55007925  0.04637577     0.00300
N12         N  0.56149114  0.38662312  0.40928084    -0.47700
H13         H  0.47622957  0.34550026  0.08930270     0.06000
N14         N  0.56240217  0.41442022  0.04393092     0.00600
N15         N  0.57931678  0.55314330  0.44513713     0.00300
C16         C  0.59214276  0.60202655  0.39084150     0.41900
N17         N  0.41884599  0.53881543  0.05728693    -0.26300
C18         C  0.44605983  0.38334481  0.41286687    -0.07200
N19         N  0.39681554  0.42890128  0.08916059    -0.47400
N20         N  0.60863517  0.56328149  0.41093778    -0.47600
C21         C  0.40184347  0.39932499  0.39386278     0.41700
N22         N  0.55531655  0.41727090  0.44290188     0.00500
N23         N  0.41210204  0.54135319  0.45604279    -0.26300
N24         N  0.45973997  0.40744136  0.05079374    -0.26800
N25         N  0.44264903  0.57546050  0.45472604     0.00200
H26         H  0.35084671  0.52531220  0.41519674     0.06100
H27         H  0.52812484  0.64569977  0.41178898     0.06100
N28         N  0.58571081  0.45150241  0.44119952    -0.26900
N29         N  0.55137157  0.57942648  0.04975424    -0.26500
N30         N  0.41889048  0.44051375  0.45313451     0.00500
C31         C  0.61296510  0.39691759  0.09542249     0.41900
C32         C  0.39004616  0.54476202  0.09359355    -0.07700
N33         N  0.54505699  0.58322463  0.44894688    -0.26500
H34         H  0.53736535  0.63688946  0.09552120     0.06100
N35         N  0.57284185  0.38273802  0.07543906    -0.47700
H36         H  0.36024297  0.52315902  0.10178098     0.06100
C37         C  0.39522091  0.59010979  0.39906552     0.41800
C38         C  0.45456410  0.37568674  0.08443023    -0.07200
Co39       Co  0.41771549  0.48948757  0.00538765     0.73800
N40         N  0.44225598  0.60358578  0.08982617    -0.47400
C41         C  0.59744397  0.40213707  0.38325220     0.42000
N42         N  0.38658220  0.43436281  0.42078283    -0.47400
Co43       Co  0.49691678  0.57892335  0.50245174     0.66600
C44         C  0.55011301  0.61565534  0.41604875    -0.07800
C45         C  0.62706228  0.44006452  0.07331204    -0.07300
N46         N  0.45360980  0.41095149  0.44959467    -0.26800
N47         N  0.61935889  0.55769602  0.07792604    -0.47600
H48         H  0.64369134  0.46647278  0.39532704     0.06000
C49         C  0.38042251  0.54758941  0.42218472    -0.07700
Cl50       Cl  0.50253483  0.49516865  0.99966202    -0.50700
C51         C  0.40582112  0.58775635  0.11509521     0.41800
H52         H  0.46804230  0.35495658  0.40196239     0.06000
N53         N  0.43372805  0.60562363  0.42128211    -0.47400
C54         C  0.60716210  0.90012864  0.10514863     0.41700
N55         N  0.58388216  0.94985405  0.05448471     0.00500
C56         C  0.37789344  0.07761144  0.06393809    -0.07300
H57         H  0.34860210  0.91365543  0.03881847     0.06000
C58         C  0.43744243  0.92583092  0.37549329    -0.07700
Co59       Co  0.49770556  0.99928457  0.08710820     0.74200
N60         N  0.41379678  0.94927635  0.04967317    -0.26900
Co61       Co  0.41469659  0.00034848  0.99809805     0.74100
C62         C  0.39292670  0.90570064  0.38976065     0.41800
N63         N  0.55567013  0.95275716  0.41420129     0.00200
N64         N  0.41669749  0.95170727  0.44372153     0.00300
N65         N  0.43173661  0.07673145  0.12178106    -0.47700
H66         H  0.54421439  0.91434831  0.15322062     0.06000
N67         N  0.44491024  0.94857163  0.08385325     0.00600
N68         N  0.41610247  0.05177091  0.44679739     0.00300
C69         C  0.39212259  0.10177619  0.39688620     0.41900
N70         N  0.58676333  0.95233933  0.44842484    -0.26300
C71         C  0.56466496  0.07711737  0.12429830    -0.07200
N72         N  0.61858122  0.92122996  0.06453477    -0.47400
N73         N  0.38097522  0.07994057  0.43710092    -0.47600
C74         C  0.60953378  0.09643999  0.10924108     0.41700
N75         N  0.44421587  0.04934314  0.08645768     0.00500
N76         N  0.58701520  0.05181426  0.45073562    -0.26300
N77         N  0.55083127  0.94974860  0.08692122    -0.26800
N78         N  0.55560454  0.05325637  0.41687064     0.00200
H79         H  0.65405147  0.08431376  0.45990592     0.06100
H80         H  0.45531855  0.08909869  0.34864978     0.06100
N81         N  0.41283176  0.04889699  0.05248546    -0.26900
N82         N  0.44954459  0.95373084  0.41113020    -0.26500
N83         N  0.58412190  0.05003011  0.05630708     0.00500
C84         C  0.39328485  0.89782078  0.10405317     0.41900
C85         C  0.62095495  0.92269183  0.43727864    -0.07700
N86         N  0.44928202  0.05274605  0.41448104    -0.26500
H87         H  0.45564414  0.92291149  0.34238217     0.06100
N88         N  0.43368566  0.91860602  0.11728686    -0.47700
H89         H  0.65266424  0.91788597  0.45724952     0.06100
C90         C  0.60938214  0.10084578  0.39485773     0.41800
C91         C  0.56259061  0.91940845  0.12048097    -0.07200
Co92       Co  0.58555747  0.00098315  0.00259127     0.73800
N93         N  0.56752769  0.92494663  0.37903462    -0.47400
C94         C  0.39023520  0.09612845  0.11007741     0.42000
N95         N  0.61950644  0.07764925  0.06719282    -0.47400
Co96       Co  0.50264029  0.00318986  0.41373601     0.73900
C97         C  0.43710923  0.08344191  0.38137668    -0.07800
C98         C  0.38017087  0.91825408  0.05907153    -0.07300
N99         N  0.55144154  0.04893011  0.08915149    -0.26800
N100        N  0.38200270  0.92348069  0.43210259    -0.47600
H101        H  0.34588888  0.08153325  0.04423141     0.06000
C102        C  0.62187373  0.08106848  0.44030250    -0.07700
Cl103      Cl  0.50015283  0.00101293  0.00040193    -0.50700
C104        C  0.60834647  0.90445723  0.39111221     0.41800
H105        H  0.54714428  0.08054942  0.15771998     0.06000
N106        N  0.56795078  0.08170543  0.38251266    -0.47400
C107        C  0.90420944  0.39577938  0.11628006     0.41700
N108        N  0.95060710  0.41824610  0.06114067     0.00500
C109        C  0.08295278  0.62052684  0.05653433    -0.07300
H110        H  0.91690814  0.65264422  0.04214100     0.06000
C111        C  0.91523009  0.56219320  0.38086361    -0.07700
Co112      Co  0.00252979  0.50445687  0.08750508     0.74200
N113        N  0.95156857  0.58748673  0.05183182    -0.26900
Co114      Co  0.99971087  0.58464535  0.99680026     0.74100
C115        C  0.89799522  0.60756637  0.39550087     0.41800
N116        N  0.94421075  0.44408394  0.42090877     0.00200
N117        N  0.94700335  0.58277400  0.44644712     0.00300
N118        N  0.08393734  0.56807179  0.11514002    -0.47700
H119        H  0.92019795  0.46086272  0.16020465     0.06000
N120        N  0.95203756  0.55726988  0.08651984     0.00600
N121        N  0.04768625  0.58141094  0.44143693     0.00300
C122        C  0.09173477  0.60448958  0.38533657     0.41900
N123        N  0.94597011  0.41396232  0.45567978    -0.26300
C124        C  0.08389293  0.44027169  0.12090212    -0.07200
N125        N  0.92319788  0.38367428  0.07461774    -0.47400
N126        N  0.07517431  0.61587547  0.42806294    -0.47600
C127        C  0.10266621  0.39555551  0.10628628     0.41700
N128        N  0.05372628  0.55615768  0.08199124     0.00500
N129        N  0.04632485  0.41273432  0.44989589    -0.26300
N130        N  0.95186980  0.45222790  0.09210817    -0.26800
N131        N  0.04549654  0.44303144  0.41522845     0.00200
H132        H  0.08025805  0.34692367  0.45834742     0.06100
H133        H  0.07389964  0.54113351  0.33995303     0.06100
N134        N  0.05220822  0.58657396  0.04752281    -0.26900
N135        N  0.94538790  0.54950018  0.41463383    -0.26500
N136        N  0.05172762  0.41811310  0.05600326     0.00500
C137        C  0.90386972  0.61012088  0.10923586     0.41900
C138        C  0.91485796  0.38023925  0.44762197    -0.07700
N139        N  0.04508338  0.54816084  0.40964849    -0.26500
H140        H  0.90968269  0.54418437  0.34810161     0.06100
N141        N  0.92439365  0.56979822  0.12175565    -0.47700
H142        H  0.91123279  0.34888963  0.46792530     0.06100
C143        C  0.09271954  0.38976695  0.39141501     0.41800
C144        C  0.92319418  0.44149726  0.12788107    -0.07200
Co145      Co  0.99873619  0.41557813  0.00572126     0.73800
N146        N  0.91393986  0.43168210  0.38804525    -0.47400
C147        C  0.10407048  0.60825190  0.10151368     0.42000
N148        N  0.08036610  0.38365979  0.06638421    -0.47400
Co149      Co  0.99499194  0.49594574  0.41469754     0.73900
C150        C  0.07193642  0.55970297  0.37280227    -0.07800
C151        C  0.92189187  0.62167740  0.06266441    -0.07300
N152        N  0.05264789  0.45152103  0.08766902    -0.26800
N153        N  0.91979881  0.61826971  0.43590907    -0.47600
H154        H  0.08669438  0.65185288  0.03625197     0.06000
C155        C  0.07529224  0.37815396  0.43821267    -0.07700
Cl156      Cl  0.99903195  0.50016234  0.00115787    -0.50700
C157        C  0.89330890  0.39238336  0.40317754     0.41800
H158        H  0.08966355  0.45899608  0.15321702     0.06000
N159        N  0.07244886  0.43037349  0.37946299    -0.47400
C160        C  0.25679540  0.25099219  0.20595772     0.44700
H161        H  0.25948308  0.24815500  0.16718825    -0.04400
C162        C  0.25125078  0.25777412  0.29626718     0.44700
H163        H  0.24875589  0.26115254  0.33500877    -0.04400
C164        C  0.29102838  0.28582979  0.22681380    -0.18100
C165        C  0.20878138  0.26902567  0.22294961    -0.17800
C166        C  0.26959034  0.20573326  0.23144090    -0.18200
C167        C  0.28761647  0.28995335  0.27435725    -0.18200
C168        C  0.20566182  0.27138033  0.27130135    -0.17700
C169        C  0.26743783  0.20944675  0.27985134    -0.18100
C170        C  0.75450672  0.25251128  0.20561940     0.44700
H171        H  0.76028807  0.25355630  0.16714096    -0.04400
C172        C  0.74250779  0.25117643  0.29545759     0.44700
H173        H  0.73688142  0.25045516  0.33402026    -0.04400
C174        C  0.71661873  0.28554244  0.22262834    -0.18100
C175        C  0.73699895  0.20504899  0.22376550    -0.17800
C176        C  0.79796434  0.26866839  0.23306791    -0.18200
C177        C  0.70997634  0.28454000  0.26999039    -0.18200
C178        C  0.73219072  0.20445877  0.27209191    -0.17700
C179        C  0.79152129  0.26814542  0.28112171    -0.18100
C180        C  0.25911537  0.74038918  0.20539473     0.44700
H181        H  0.26003827  0.73994459  0.16641830    -0.04400
C182        C  0.25815273  0.73995344  0.29601738     0.44700
H183        H  0.25734593  0.74061457  0.33468673    -0.04400
C184        C  0.29193545  0.70490745  0.22706211    -0.18100
C185        C  0.27584050  0.78637855  0.22696618    -0.17800
C186        C  0.21117866  0.72674919  0.22614470    -0.18200
C187        C  0.29132078  0.70438323  0.27472048    -0.18200
C188        C  0.27543755  0.78633080  0.27550768    -0.17700
C189        C  0.21053794  0.72611728  0.27479588    -0.18100
C190        C  0.74783398  0.74214141  0.20467890     0.44700
H191        H  0.75077172  0.73954469  0.16592500    -0.04400
C192        C  0.74069150  0.74741294  0.29495867     0.44700
H193        H  0.73686668  0.74969350  0.33365984    -0.04400
C194        C  0.71268554  0.70799659  0.22533663    -0.18100
C195        C  0.79357358  0.72968956  0.23027505    -0.17800
C196        C  0.72969500  0.78965074  0.22179605    -0.18200
C197        C  0.70839590  0.71147417  0.27285031    -0.18200
C198        C  0.78974916  0.73181225  0.27872774    -0.17700
C199        C  0.72680186  0.79243829  0.27012646    -0.18100
C200        C  0.15366385  0.62019144  0.17289742    -0.14100
C201        C  0.13173770  0.63865060  0.13310498     0.08000
C202        C  0.13527995  0.68650356  0.12480140    -0.14100
C203        C  0.15972735  0.71525197  0.15595513    -0.14100
C204        C  0.18096807  0.69686521  0.19606031     0.08000
C205        C  0.17867427  0.64883279  0.20356138    -0.14100
H206        H  0.15197851  0.58345382  0.17999038     0.12000
H207        H  0.11883827  0.70192192  0.09453419     0.12000
H208        H  0.16239579  0.75190404  0.14858636     0.12000
H209        H  0.19662328  0.63337800  0.23299547     0.12000
C210        C  0.16656642  0.64311790  0.36938035    -0.14100
C211        C  0.12044228  0.63539948  0.35628192     0.08000
C212        C  0.10202005  0.65919569  0.31757395    -0.14100
C213        C  0.13008126  0.69044623  0.29216056    -0.14100
C214        C  0.17751919  0.69696235  0.30402048     0.08000
C215        C  0.19467438  0.67298921  0.34362740    -0.14100
H216        H  0.18117427  0.62539974  0.39940858     0.12000
H217        H  0.06581834  0.65418887  0.30756194     0.12000
H218        H  0.11488309  0.70889619  0.26299197     0.12000
H219        H  0.23040982  0.67573790  0.35512829     0.12000
C220        C  0.14238456  0.37757859  0.31932984    -0.14100
C221        C  0.11948109  0.35926809  0.35881088     0.08000
C222        C  0.12271498  0.31140305  0.36712758    -0.14100
C223        C  0.14875022  0.28276439  0.33721425    -0.14100
C224        C  0.17210435  0.30107508  0.29813182     0.08000
C225        C  0.16900660  0.34897525  0.28978591    -0.14100
H226        H  0.14095063  0.41431073  0.31215510     0.12000
H227        H  0.10534139  0.29594874  0.39694463     0.12000
H228        H  0.15155386  0.24627477  0.34519290     0.12000
H229        H  0.18844038  0.36456977  0.26130945     0.12000
C230        C  0.10583629  0.33380870  0.16792768    -0.14100
C231        C  0.12889276  0.36248952  0.13550723     0.08000
C232        C  0.17724423  0.35866179  0.13024195    -0.14100
C233        C  0.20247779  0.32728855  0.15745128    -0.14100
C234        C  0.18003709  0.29892250  0.19091694     0.08000
C235        C  0.13115790  0.30215584  0.19528098    -0.14100
H236        H  0.06830541  0.33604475  0.17213034     0.12000
H237        H  0.19563103  0.38028218  0.10520848     0.12000
H238        H  0.23982016  0.32633311  0.15273026     0.12000
H239        H  0.11268749  0.28073565  0.22036594     0.12000
C240        C  0.85576493  0.37922467  0.18825495    -0.14100
C241        C  0.87894679  0.36324615  0.14793888     0.08000
C242        C  0.87808601  0.31556967  0.13815960    -0.14100
C243        C  0.85430252  0.28470018  0.16769147    -0.14100
C244        C  0.83069220  0.30058677  0.20770317     0.08000
C245        C  0.83139062  0.34839515  0.21740943    -0.14100
H246        H  0.85516965  0.41576372  0.19648060     0.12000
H247        H  0.89556829  0.30208192  0.10740466     0.12000
H248        H  0.85312958  0.24836794  0.15851245     0.12000
H249        H  0.81131697  0.36230869  0.24629933     0.12000
C250        C  0.81959256  0.35664527  0.37590444    -0.14100
C251        C  0.86808895  0.36009083  0.37258637     0.08000
C252        C  0.89233512  0.33155361  0.34105786    -0.14100
C253        C  0.86793519  0.30034769  0.31236517    -0.14100
C254        C  0.81891669  0.29764552  0.31453461     0.08000
C255        C  0.79524361  0.32589171  0.34719229    -0.14100
H256        H  0.80047126  0.37818375  0.40037658     0.12000
H257        H  0.93005461  0.33351509  0.33865882     0.12000
H258        H  0.88719303  0.27891957  0.28796900     0.12000
H259        H  0.75766055  0.32546342  0.35004277     0.12000
C260        C  0.89436430  0.67026222  0.33459913    -0.14100
C261        C  0.87177210  0.64135722  0.36718774     0.08000
C262        C  0.82363771  0.64548299  0.37356661    -0.14100
C263        C  0.79787878  0.67631995  0.34636209    -0.14100
C264        C  0.81953929  0.70404922  0.31182764     0.08000
C265        C  0.86849099  0.70162665  0.30733322    -0.14100
H266        H  0.93185222  0.66811491  0.32987630     0.12000
H267        H  0.80570650  0.62403222  0.39906352     0.12000
H268        H  0.76056275  0.67674558  0.35157044     0.12000
H269        H  0.88645614  0.72286470  0.28175541     0.12000
C270        C  0.87020306  0.68783650  0.13040712    -0.14100
C271        C  0.87754026  0.64105540  0.14168437     0.08000
C272        C  0.85984093  0.62437709  0.18443091    -0.14100
C273        C  0.83435278  0.65340698  0.21447489    -0.14100
C274        C  0.82751243  0.70039684  0.20343477     0.08000
C275        C  0.84571345  0.71705712  0.16095230    -0.14100
H276        H  0.88318920  0.70207279  0.09787566     0.12000
H277        H  0.86441980  0.58845093  0.19396602     0.12000
H278        H  0.81835005  0.63845764  0.24530453     0.12000
H279        H  0.83966286  0.75258696  0.15068489     0.12000
C280        C  0.68936242  0.12795640  0.37053950    -0.14100
C281        C  0.64097107  0.12572109  0.36199590     0.08000
C282        C  0.62329226  0.14672268  0.32133113    -0.14100
C283        C  0.65319762  0.17041081  0.29061479    -0.14100
C284        C  0.70156966  0.17249387  0.29925790     0.08000
C285        C  0.71924672  0.15115279  0.33956112    -0.14100
H286        H  0.70436443  0.11196257  0.40131058     0.12000
H287        H  0.58618481  0.14585313  0.31393395     0.12000
H288        H  0.63836086  0.18849723  0.26094770     0.12000
H289        H  0.75612643  0.15357861  0.34770425     0.12000
C290        C  0.66725436  0.10193682  0.17538351    -0.14100
C291        C  0.64385362  0.12245686  0.13749063     0.08000
C292        C  0.65471029  0.16789750  0.12524147    -0.14100
C293        C  0.68614213  0.19366090  0.15210757    -0.14100
C294        C  0.70866669  0.17435601  0.19157049     0.08000
C295        C  0.70016135  0.12733773  0.20153567    -0.14100
H296        H  0.66018650  0.06629505  0.18457221     0.12000
H297        H  0.63763697  0.18405218  0.09559010     0.12000
H298        H  0.69093832  0.22936074  0.14241677     0.12000
H299        H  0.71776781  0.11059911  0.23047031     0.12000
C300        C  0.37668111  0.14161112  0.18450796    -0.14100
C301        C  0.35909565  0.12207696  0.14292828     0.08000
C302        C  0.31119029  0.12744011  0.13305658    -0.14100
C303        C  0.28187150  0.15210353  0.16352008    -0.14100
C304        C  0.29943069  0.17215786  0.20473233     0.08000
C305        C  0.34740313  0.16690135  0.21466945    -0.14100
H306        H  0.41342156  0.13854116  0.19299691     0.12000
H307        H  0.29614356  0.11285888  0.10154849     0.12000
H308        H  0.24549387  0.15671195  0.15419127     0.12000
H309        H  0.36280979  0.18402890  0.24468968     0.12000
C310        C  0.35537131  0.17595368  0.37421014    -0.14100
C311        C  0.35838051  0.12814297  0.36861908     0.08000
C312        C  0.32898707  0.10596011  0.33612197    -0.14100
C313        C  0.29784672  0.13174617  0.30848814    -0.14100
C314        C  0.29600533  0.18018729  0.31262744     0.08000
C315        C  0.32464195  0.20164710  0.34665651    -0.14100
H316        H  0.37750858  0.19359736  0.39938220     0.12000
H317        H  0.33055621  0.06879846  0.33179240     0.12000
H318        H  0.27606379  0.11404014  0.28312893     0.12000
H319        H  0.32479892  0.23865338  0.35129565     0.12000
C320        C  0.66774509  0.89418265  0.16827149    -0.14100
C321        C  0.64020425  0.87299082  0.13357496     0.08000
C322        C  0.64440257  0.82548267  0.12597790    -0.14100
C323        C  0.67456936  0.79907699  0.15356508    -0.14100
C324        C  0.70174979  0.81964957  0.18925463     0.08000
C325        C  0.69872801  0.86783780  0.19547459    -0.14100
H326        H  0.66513057  0.93103646  0.17437020     0.12000
H327        H  0.62349975  0.80857413  0.09927052     0.12000
H328        H  0.67514413  0.76220606  0.14770910     0.12000
H329        H  0.71937797  0.88489175  0.22222204     0.12000
C330        C  0.68625287  0.87021646  0.36922254    -0.14100
C331        C  0.63875533  0.87735122  0.35870544     0.08000
C332        C  0.62090127  0.85851845  0.31691875    -0.14100
C333        C  0.64959137  0.83232808  0.28704083    -0.14100
C334        C  0.69727817  0.82572495  0.29739393     0.08000
C335        C  0.71503675  0.84481932  0.33896540    -0.14100
H336        H  0.70144059  0.88413179  0.40097542     0.12000
H337        H  0.58440535  0.86295023  0.30798760     0.12000
H338        H  0.63402792  0.81593657  0.25668492     0.12000
H339        H  0.75117415  0.83912435  0.34857755     0.12000
C340        C  0.35319937  0.83134046  0.37457424    -0.14100
C341        C  0.36119626  0.87701491  0.36137540     0.08000
C342        C  0.33887819  0.89457458  0.32136075    -0.14100
C343        C  0.30883501  0.86630900  0.29478429    -0.14100
C344        C  0.30276401  0.81927003  0.30625685     0.08000
C345        C  0.32527002  0.80264969  0.34700919    -0.14100
H346        H  0.37003391  0.81731431  0.40535348     0.12000
H347        H  0.34430800  0.93017446  0.31102610     0.12000
H348        H  0.29134049  0.88098491  0.26471198     0.12000
H349        H  0.32316317  0.76693681  0.35754831     0.12000
C350        C  0.31605542  0.86090201  0.12478895    -0.14100
C351        C  0.36350043  0.86882541  0.13527693     0.08000
C352        C  0.38189021  0.84968507  0.17654279    -0.14100
C353        C  0.35356043  0.82339979  0.20659937    -0.14100
C354        C  0.30566708  0.81706169  0.19703194     0.08000
C355        C  0.28755622  0.83532539  0.15531423    -0.14100
H356        H  0.30062968  0.87480285  0.09325987     0.12000
H357        H  0.41842587  0.85454988  0.18532343     0.12000
H358        H  0.36924440  0.80754332  0.23704562     0.12000
H359        H  0.25124137  0.82961714  0.14626397     0.12000
C360        C  0.32713094  0.60136305  0.34577703    -0.14100
C361        C  0.37048838  0.61644173  0.36306495     0.08000
C362        C  0.38921672  0.65872360  0.34774324    -0.14100
C363        C  0.36375370  0.68684351  0.31775230    -0.14100
C364        C  0.31944982  0.67295524  0.30295926     0.08000
C365        C  0.30182167  0.62951895  0.31551877    -0.14100
H366        H  0.31220628  0.56864737  0.35646725     0.12000
H367        H  0.42292962  0.67071789  0.36000301     0.12000
H368        H  0.37805188  0.71986297  0.30696686     0.12000
H369        H  0.26803945  0.61803532  0.30290813     0.12000
C370        C  0.38918935  0.66410840  0.15035759    -0.14100
C371        C  0.37882819  0.61676215  0.14692071     0.08000
C372        C  0.34014320  0.59843488  0.17079051    -0.14100
C373        C  0.31143300  0.62740451  0.19677505    -0.14100
C374        C  0.32136397  0.67467085  0.19910905     0.08000
C375        C  0.36026418  0.69303131  0.17614248    -0.14100
H376        H  0.41882351  0.67900199  0.13212609     0.12000
H377        H  0.33164756  0.56201784  0.16887926     0.12000
H378        H  0.28130503  0.61310827  0.21468890     0.12000
H379        H  0.36823030  0.72956078  0.17828688     0.12000
C380        C  0.61178329  0.67743139  0.35427733    -0.14100
C381        C  0.61913199  0.62963505  0.35773145     0.08000
C382        C  0.65500140  0.60866179  0.33188227    -0.14100
C383        C  0.68361049  0.63529694  0.30321446    -0.14100
C384        C  0.67698020  0.68310151  0.30099112     0.08000
C385        C  0.64106503  0.70415516  0.32635346    -0.14100
H386        H  0.58464553  0.69440154  0.37427925     0.12000
H387        H  0.66122489  0.57181819  0.33430673     0.12000
H388        H  0.71160663  0.61899111  0.28376289     0.12000
H389        H  0.63584831  0.74114946  0.32461526     0.12000
C390        C  0.61011500  0.64794311  0.17043632    -0.14100
C391        C  0.63229175  0.61889345  0.13806873     0.08000
C392        C  0.68125174  0.61758803  0.13582356    -0.14100
C393        C  0.70768017  0.64658905  0.16454857    -0.14100
C394        C  0.68526769  0.67618613  0.19623751     0.08000
C395        C  0.63645886  0.67648998  0.19931157    -0.14100
H396        H  0.57235017  0.64927239  0.17280274     0.12000
H397        H  0.69891092  0.59557807  0.11074053     0.12000
H398        H  0.74542440  0.64619520  0.16184464     0.12000
H399        H  0.61874001  0.69975880  0.22312970     0.12000
C400        C  0.65631925  0.39191220  0.32012180    -0.14100
C401        C  0.62307548  0.37280384  0.35058055     0.08000
C402        C  0.61669280  0.32470398  0.35230652    -0.14100
C403        C  0.64460892  0.29591081  0.32529429    -0.14100
C404        C  0.67810360  0.31498885  0.29536733     0.08000
C405        C  0.68355098  0.36303607  0.29228553    -0.14100
H406        H  0.66172446  0.42892481  0.31840532     0.12000
H407        H  0.59145733  0.30921286  0.37590442     0.12000
H408        H  0.64052067  0.25884965  0.32822678     0.12000
H409        H  0.71003771  0.37795504  0.26970484     0.12000
C410        C  0.68829105  0.37262442  0.12999746    -0.14100
C411        C  0.63944125  0.36940382  0.12872547     0.08000
C412        C  0.61596159  0.33840963  0.15827687    -0.14100
C413        C  0.64115903  0.31131850  0.18945885    -0.14100
C414        C  0.68996686  0.31453553  0.19054540     0.08000
C415        C  0.71350173  0.34474836  0.16042016    -0.14100
H416        H  0.70698201  0.39580925  0.10682206     0.12000
H417        H  0.57822027  0.33539797  0.15739650     0.12000
H418        H  0.62280523  0.28741814  0.21221063     0.12000
H419        H  0.75125673  0.34700570  0.16065972     0.12000
C420        C  0.39372937  0.34561353  0.32708163    -0.14100
C421        C  0.37297443  0.37506534  0.35996601     0.08000
C422        C  0.32418983  0.37811754  0.36310659    -0.14100
C423        C  0.29632162  0.35039661  0.33482991    -0.14100
C424        C  0.31708265  0.32034556  0.30264798     0.08000
C425        C  0.36583470  0.31821405  0.29853380    -0.14100
H426        H  0.43140167  0.34303825  0.32418906     0.12000
H427        H  0.30765965  0.40048576  0.38863935     0.12000
H428        H  0.25868875  0.35210011  0.33830174     0.12000
H429        H  0.38219845  0.29446450  0.27421551     0.12000
C430        C  0.38615440  0.31507731  0.14128350    -0.14100
C431        C  0.38505858  0.36349435  0.14261998     0.08000
C432        C  0.35338829  0.38629825  0.17206471    -0.14100
C433        C  0.32284083  0.36090909  0.19982200    -0.14100
C434        C  0.32344660  0.31256888  0.19787949     0.08000
C435        C  0.35496268  0.28969490  0.16846658    -0.14100
H436        H  0.40978374  0.29693464  0.11803689     0.12000
H437        H  0.35189296  0.42371646  0.17305933     0.12000
H438        H  0.29815069  0.37883348  0.22215618     0.12000
H439        H  0.35546664  0.25231891  0.16661769     0.12000
C440        C  0.41303776  0.39044350  0.60991413     0.41700
N441        N  0.42579400  0.43790496  0.55438473     0.00500
C442        C  0.61388558  0.44519163  0.90430340    -0.07300
H443        H  0.65777322  0.46118810  0.57895369     0.06000
C444        C  0.55927820  0.60814115  0.58547524    -0.07700
Co445      Co  0.50784914  0.41135501  0.49688963     0.74200
N446        N  0.59337592  0.44818704  0.54202175    -0.26900
Co447      Co  0.58742140  0.50089023  0.99356073     0.74100
C448        C  0.60411239  0.59343065  0.60410117     0.41800
N449        N  0.44917060  0.57305303  0.55620554     0.00200
N450        N  0.58639587  0.55007619  0.54637691     0.00300
N451        N  0.56148992  0.38662424  0.90927904    -0.47700
H452        H  0.47622985  0.34549691  0.58930402     0.06000
N453        N  0.56240310  0.41441871  0.54393050     0.00600
N454        N  0.57931647  0.55314118  0.94513520     0.00300
C455        C  0.59213963  0.60201720  0.89083249     0.41900
N456        N  0.41884577  0.53881354  0.55728920    -0.26300
C457        C  0.44605859  0.38334550  0.91286502    -0.07200
N458        N  0.39681593  0.42889900  0.58916258    -0.47400
N459        N  0.60863359  0.56327546  0.91093361    -0.47600
C460        C  0.40184168  0.39932541  0.89386101     0.41700
N461        N  0.55531652  0.41727104  0.94290118     0.00500
N462        N  0.41210014  0.54135343  0.95604098    -0.26300
N463        N  0.45974065  0.40743951  0.55079570    -0.26800
N464        N  0.44264746  0.57546034  0.95472253     0.00200
H465        H  0.35084166  0.52531351  0.91519965     0.06100
H466        H  0.52812027  0.64569083  0.91177555     0.06100
N467        N  0.58571159  0.45150195  0.94119969    -0.26900
N468        N  0.55137252  0.57942289  0.54975798    -0.26500
N469        N  0.41888931  0.44051461  0.95313257     0.00500
C470        C  0.61296801  0.39691358  0.59541893     0.41900
C471        C  0.39004354  0.54476115  0.59359376    -0.07700
N472        N  0.54505598  0.58322202  0.94894205    -0.26500
H473        H  0.53736737  0.63688198  0.59552890     0.06100
N474        N  0.57284365  0.38273545  0.57543692    -0.47700
H475        H  0.36023877  0.52315929  0.60177928     0.06100
C476        C  0.39521561  0.59011036  0.89906556     0.41800
C477        C  0.45456419  0.37568451  0.58443178    -0.07200
Co478      Co  0.41771630  0.48948638  0.50538964     0.73800
N479        N  0.44225393  0.60358452  0.58982820    -0.47400
C480        C  0.59744280  0.40213798  0.88325018     0.42000
N481        N  0.38658081  0.43436344  0.92078107    -0.47400
Co482      Co  0.49691596  0.57892423  0.00244760     0.66600
C483        C  0.55010997  0.61564818  0.91603918    -0.07800
C484        C  0.62706477  0.44006099  0.57330917    -0.07300
N485        N  0.45360884  0.41095248  0.94959277    -0.26800
N486        N  0.61936051  0.55769069  0.57792704    -0.47600
H487        H  0.64369117  0.46647261  0.89532601     0.06000
C488        C  0.38041828  0.54759004  0.92218528    -0.07700
Cl489      Cl  0.50253548  0.49516777  0.49966383    -0.50700
C490        C  0.40581716  0.58775597  0.61509505     0.41800
H491        H  0.46804051  0.35495795  0.90196111     0.06000
N492        N  0.43372441  0.60562378  0.92127956    -0.47400
C493        C  0.60715423  0.90011871  0.60514458     0.41700
N494        N  0.58387887  0.94984907  0.55448270     0.00500
C495        C  0.37789560  0.07761457  0.56393847    -0.07300
H496        H  0.34859730  0.91365888  0.53881609     0.06000
C497        C  0.43744430  0.92582869  0.87549489    -0.07700
Co498      Co  0.49770386  0.99928184  0.58710678     0.74200
N499        N  0.41379348  0.94927771  0.54967065    -0.26900
Co500      Co  0.41469516  0.00035113  0.49809688     0.74100
C501        C  0.39292817  0.90569940  0.88976102     0.41800
N502        N  0.55567237  0.95275486  0.91420399     0.00200
N503        N  0.41669969  0.95170371  0.94372355     0.00300
N504        N  0.43173820  0.07673044  0.62178183    -0.47700
H505        H  0.54420547  0.91433958  0.65321601     0.06000
N506        N  0.44490748  0.94857102  0.58385012     0.00600
N507        N  0.41610286  0.05176703  0.94679737     0.00300
C508        C  0.39212235  0.10177164  0.89688583     0.41900
N509        N  0.58676624  0.95233932  0.94842716    -0.26300
C510        C  0.56466370  0.07711153  0.62430021    -0.07200
N511        N  0.61857594  0.92122232  0.56453237    -0.47400
N512        N  0.38097532  0.07993639  0.93710081    -0.47600
C513        C  0.60953311  0.09643346  0.60924527     0.41700
N514        N  0.44421629  0.04934244  0.58645788     0.00500
N515        N  0.58701405  0.05181485  0.95073522    -0.26300
N516        N  0.55082713  0.94974355  0.58691836    -0.26800
N517        N  0.55560375  0.05325482  0.91686987     0.00200
H518        H  0.65404737  0.08431971  0.95990752     0.06100
H519        H  0.45531831  0.08909421  0.84864924     0.06100
N520        N  0.41283226  0.04889851  0.55248539    -0.26900
N521        N  0.44954699  0.95372724  0.91113227    -0.26500
N522        N  0.58412221  0.05002561  0.55630902     0.00500
C523        C  0.39328127  0.89782096  0.60404938     0.41900
C524        C  0.62095807  0.92269175  0.93728169    -0.07700
N525        N  0.44928217  0.05274202  0.91448086    -0.26500
H526        H  0.45564641  0.92291033  0.84238198     0.06100
N527        N  0.43368285  0.91860454  0.61728285    -0.47700
H528        H  0.65266873  0.91788693  0.95725282     0.06100
C529        C  0.60937813  0.10084784  0.89485809     0.41800
C530        C  0.56258360  0.91940066  0.62047634    -0.07200
Co531      Co  0.58555648  0.00098074  0.50259087     0.73800
N532        N  0.56752961  0.92494239  0.87903893    -0.47400
C533        C  0.39023790  0.09612992  0.61007841     0.42000
N534        N  0.61950705  0.07764372  0.56719673    -0.47400
Co535      Co  0.50264141  0.00318683  0.91373702     0.73900
C536        C  0.43710903  0.08343745  0.88137618    -0.07800
C537        C  0.38016681  0.91825618  0.55906875    -0.07300
N538        N  0.55144097  0.04892548  0.58915257    -0.26800
N539        N  0.38200428  0.92347841  0.93210356    -0.47600
H540        H  0.34589136  0.08153845  0.54423153     0.06000
C541        C  0.62187033  0.08107159  0.94030292    -0.07700
Cl542      Cl  0.50015159  0.00101322  0.50040084    -0.50700
C543        C  0.60834904  0.90445414  0.89111670     0.41800
H544        H  0.54714098  0.08054350  0.65772280     0.06000
N545        N  0.56794830  0.08170465  0.88251214    -0.47400
C546        C  0.90421100  0.39577500  0.61627917     0.41700
N547        N  0.95060677  0.41824359  0.56113900     0.00500
C548        C  0.08295295  0.62052520  0.55653710    -0.07300
H549        H  0.91690988  0.65264309  0.54213975     0.06000
C550        C  0.91522891  0.56218868  0.88086323    -0.07700
Co551      Co  0.00253107  0.50445335  0.58750434     0.74200
N552        N  0.95157150  0.58748514  0.55183185    -0.26900
Co553      Co  0.99971400  0.58464409  0.49680040     0.74100
C554        C  0.89799187  0.60756110  0.89549990     0.41800
N555        N  0.94421344  0.44408095  0.92090880     0.00200
N556        N  0.94700034  0.58277175  0.94644702     0.00300
N557        N  0.08393652  0.56806992  0.61514271    -0.47700
H558        H  0.92020109  0.46085742  0.66020586     0.06000
N559        N  0.95203945  0.55726743  0.58651945     0.00600
N560        N  0.04768325  0.58141286  0.94143755     0.00300
C561        C  0.09173244  0.60449274  0.88533833     0.41900
N562        N  0.94597359  0.41395971  0.95568025    -0.26300
C563        C  0.08389240  0.44026429  0.62089996    -0.07200
N564        N  0.92319811  0.38367125  0.57461591    -0.47400
N565        N  0.07517058  0.61587812  0.92806423    -0.47600
C566        C  0.10266368  0.39554741  0.60628370     0.41700
N567        N  0.05372814  0.55615423  0.58199180     0.00500
N568        N  0.04632724  0.41273561  0.94989891    -0.26300
N569        N  0.95187043  0.45222460  0.59210736    -0.26800
N570        N  0.04549849  0.44303213  0.91523053     0.00200
H571        H  0.08025817  0.34692282  0.95835111     0.06100
H572        H  0.07390082  0.54113522  0.83995411     0.06100
N573        N  0.05221072  0.58657071  0.54752356    -0.26900
N574        N  0.94538670  0.54949750  0.91463412    -0.26500
N575        N  0.05172678  0.41810850  0.55600039     0.00500
C576        C  0.90386989  0.61011754  0.60923435     0.41900
C577        C  0.91486668  0.38023228  0.94761974    -0.07700
N578        N  0.04508223  0.54816234  0.90964938    -0.26500
H579        H  0.90968292  0.54417945  0.84810167     0.06100
N580        N  0.92439386  0.56979475  0.62175422    -0.47700
H581        H  0.91124458  0.34888266  0.96792181     0.06100
C582        C  0.09271898  0.38976551  0.89141668     0.41800
C583        C  0.92319614  0.44149262  0.62788081    -0.07200
Co584      Co  0.99873453  0.41557655  0.50571892     0.73800
N585        N  0.91394663  0.43167544  0.88804291    -0.47400
C586        C  0.10406832  0.60825118  0.60151774     0.42000
N587        N  0.08036349  0.38365355  0.56638104    -0.47400
Co588      Co  0.99499256  0.49594509  0.91469851     0.73900
C589        C  0.07193581  0.55970538  0.87280393    -0.07800
C590        C  0.92189403  0.62167491  0.56266411    -0.07300
N591        N  0.05264825  0.45151588  0.58766686    -0.26800
N592        N  0.91979435  0.61826610  0.93590819    -0.47600
H593        H  0.08669312  0.65185145  0.53625623     0.06000
C594        C  0.07529322  0.37815462  0.93821531    -0.07700
Cl595      Cl  0.99903258  0.50016095  0.50115701    -0.50700
C596        C  0.89331991  0.39237394  0.90317340     0.41800
H597        H  0.08966339  0.45898783  0.65321600     0.06000
N598        N  0.07244884  0.43037234  0.87946446    -0.47400
C599        C  0.25679380  0.25098816  0.70595952     0.44700
H600        H  0.25948165  0.24815028  0.66719085    -0.04400
C601        C  0.25124872  0.25777127  0.79626907     0.44700
H602        H  0.24875463  0.26115036  0.83501048    -0.04400
C603        C  0.29102582  0.28582709  0.72681518    -0.18100
C604        C  0.20877911  0.26902067  0.72295101    -0.17800
C605        C  0.26958984  0.20572998  0.73144339    -0.18200
C606        C  0.28761336  0.28995119  0.77435853    -0.18200
C607        C  0.20565934  0.27137638  0.77130290    -0.17700
C608        C  0.26743671  0.20944385  0.77985362    -0.18100
C609        C  0.75450601  0.25250752  0.70561904     0.44700
H610        H  0.76028617  0.25355051  0.66713912    -0.04400
C611        C  0.74250782  0.25117679  0.79545712     0.44700
H612        H  0.73688198  0.25045776  0.83402072    -0.04400
C613        C  0.71661998  0.28554111  0.72262707    -0.18100
C614        C  0.73699636  0.20504689  0.72376712    -0.17800
C615        C  0.79796485  0.26866350  0.73306613    -0.18200
C616        C  0.70997761  0.28454107  0.76998917    -0.18200
C617        C  0.73218821  0.20445879  0.77209342    -0.17700
C618        C  0.79152225  0.26814194  0.78112007    -0.18100
C619        C  0.25911129  0.74038996  0.70539476     0.44700
H620        H  0.26003310  0.73994483  0.66641846    -0.04400
C621        C  0.25815067  0.73995622  0.79601723     0.44700
H622        H  0.25734519  0.74061919  0.83468672    -0.04400
C623        C  0.29192959  0.70490640  0.72706197    -0.18100
C624        C  0.27583972  0.78637881  0.72696484    -0.17800
C625        C  0.21117430  0.72675293  0.72614627    -0.18200
C626        C  0.29131566  0.70438325  0.77472052    -0.18200
C627        C  0.27543808  0.78633200  0.77550619    -0.17700
C628        C  0.21053455  0.72612205  0.77479759    -0.18100
C629        C  0.74783204  0.74213773  0.70467833     0.44700
H630        H  0.75076960  0.73954167  0.66592363    -0.04400
C631        C  0.74069095  0.74740765  0.79495798     0.44700
H632        H  0.73686610  0.74968799  0.83365996    -0.04400
C633        C  0.71268541  0.70799142  0.72533595    -0.18100
C634        C  0.79357239  0.72968638  0.73027339    -0.17800
C635        C  0.72969090  0.78964605  0.72179630    -0.18200
C636        C  0.70839670  0.71146794  0.77284969    -0.18200
C637        C  0.78974862  0.73180829  0.77872636    -0.17700
C638        C  0.72679951  0.79243299  0.77012703    -0.18100
C639        C  0.15366100  0.62019329  0.67290173    -0.14100
C640        C  0.13173262  0.63865141  0.63311026     0.08000
C641        C  0.13527115  0.68650496  0.62480719    -0.14100
C642        C  0.15971871  0.71525417  0.65596020    -0.14100
C643        C  0.18096306  0.69686809  0.69606349     0.08000
C644        C  0.17867198  0.64883539  0.70356469    -0.14100
H645        H  0.15197801  0.58345482  0.67999455     0.12000
H646        H  0.11882775  0.70192219  0.59454215     0.12000
H647        H  0.16238469  0.75190692  0.64859157     0.12000
H648        H  0.19662284  0.63338194  0.73299670     0.12000
C649        C  0.16656114  0.64312905  0.86938795    -0.14100
C650        C  0.12043938  0.63540410  0.85628466     0.08000
C651        C  0.10201837  0.65919582  0.81757330    -0.14100
C652        C  0.13007875  0.69044784  0.79216083    -0.14100
C653        C  0.17751538  0.69696862  0.80402381     0.08000
C654        C  0.19466855  0.67300074  0.84363492    -0.14100
H655        H  0.18116735  0.62541526  0.89941858     0.12000
H656        H  0.06581881  0.65418470  0.80755812     0.12000
H657        H  0.11488091  0.70889463  0.76299011     0.12000
H658        H  0.23040396  0.67575255  0.85513947     0.12000
C659        C  0.14237397  0.37757326  0.81932521    -0.14100
C660        C  0.11947887  0.35926524  0.85881239     0.08000
C661        C  0.12272034  0.31140184  0.86713506    -0.14100
C662        C  0.14875482  0.28276219  0.83722195    -0.14100
C663        C  0.17210107  0.30107065  0.79813344     0.08000
C664        C  0.16899576  0.34896929  0.78978165    -0.14100
H665        H  0.14093423  0.41430365  0.81214557     0.12000
H666        H  0.10535321  0.29594891  0.89695765     0.12000
H667        H  0.15156441  0.24627495  0.84520521     0.12000
H668        H  0.18842397  0.36456300  0.76130078     0.12000
C669        C  0.10583361  0.33380147  0.66792672    -0.14100
C670        C  0.12888959  0.36248011  0.63550406     0.08000
C671        C  0.17724089  0.35865065  0.63023731    -0.14100
C672        C  0.20247445  0.32727865  0.65744827    -0.14100
C673        C  0.18003412  0.29891506  0.69091639     0.08000
C674        C  0.13115494  0.30214918  0.69528093    -0.14100
H675        H  0.06830169  0.33603914  0.67213091     0.12000
H676        H  0.19562710  0.38026891  0.60520296     0.12000
H677        H  0.23981682  0.32632318  0.65272698     0.12000
H678        H  0.11268481  0.28073082  0.72036768     0.12000
C679        C  0.85576865  0.37921857  0.68825481    -0.14100
C680        C  0.87894827  0.36324107  0.64793735     0.08000
C681        C  0.87808501  0.31556485  0.63815571    -0.14100
C682        C  0.85430120  0.28469497  0.66768750    -0.14100
C683        C  0.83069327  0.30058111  0.70770093     0.08000
C684        C  0.83139419  0.34838915  0.71740911    -0.14100
H685        H  0.85517499  0.41575838  0.69648230     0.12000
H686        H  0.89556481  0.30207813  0.60740049     0.12000
H687        H  0.85312643  0.24836399  0.65850717     0.12000
H688        H  0.81132240  0.36230236  0.74629937     0.12000
C689        C  0.81960043  0.35664793  0.87589400    -0.14100
C690        C  0.86809816  0.36008217  0.87258267     0.08000
C691        C  0.89234240  0.33153625  0.84106062    -0.14100
C692        C  0.86793931  0.30033285  0.81236753    -0.14100
C693        C  0.81892008  0.29764069  0.81453176     0.08000
C694        C  0.79524874  0.32589560  0.84718270    -0.14100
H695        H  0.80048097  0.37819300  0.90035987     0.12000
H696        H  0.93006269  0.33348958  0.83866630     0.12000
H697        H  0.88719533  0.27889843  0.78797545     0.12000
H698        H  0.75766567  0.32547495  0.85002829     0.12000
C699        C  0.89436193  0.67025291  0.83459458    -0.14100
C700        C  0.87176953  0.64135089  0.86718543     0.08000
C701        C  0.82363573  0.64547956  0.87356656    -0.14100
C702        C  0.79787753  0.67631695  0.84636183    -0.14100
C703        C  0.81953838  0.70404378  0.81182537     0.08000
C704        C  0.86848973  0.70161817  0.80732881    -0.14100
H705        H  0.93185049  0.66810314  0.82987018     0.12000
H706        H  0.80570480  0.62403169  0.89906481     0.12000
H707        H  0.76056287  0.67674491  0.85157247     0.12000
H708        H  0.88645491  0.72285422  0.78175017     0.12000
C709        C  0.87020198  0.68783265  0.63040550    -0.14100
C710        C  0.87753832  0.64105122  0.64168210     0.08000
C711        C  0.85983646  0.62437210  0.68442735    -0.14100
C712        C  0.83434786  0.65340203  0.71447105    -0.14100
C713        C  0.82750985  0.70039257  0.70343238     0.08000
C714        C  0.84571221  0.71705319  0.66095066    -0.14100
H715        H  0.88318958  0.70206944  0.59787488     0.12000
H716        H  0.86441411  0.58844601  0.69396160     0.12000
H717        H  0.81834345  0.63845235  0.74530012     0.12000
H718        H  0.83966303  0.75258362  0.65068401     0.12000
C719        C  0.68935784  0.12795998  0.87054194    -0.14100
C720        C  0.64096676  0.12572382  0.86199707     0.08000
C721        C  0.62328857  0.14672480  0.82133181    -0.14100
C722        C  0.65319435  0.17041239  0.79061576    -0.14100
C723        C  0.70156620  0.17249572  0.79925993     0.08000
C724        C  0.71924246  0.15115588  0.83956399    -0.14100
H725        H  0.70435958  0.11196657  0.90131381     0.12000
H726        H  0.58618062  0.14585469  0.81393383     0.12000
H727        H  0.63835801  0.18849838  0.76094750     0.12000
H728        H  0.75612250  0.15358202  0.84770788     0.12000
C729        C  0.66725658  0.10193163  0.67538511    -0.14100
C730        C  0.64385066  0.12245217  0.63749566     0.08000
C731        C  0.65469983  0.16789555  0.62525050    -0.14100
C732        C  0.68613175  0.19365971  0.65211550    -0.14100
C733        C  0.70866238  0.17435388  0.69157419     0.08000
C734        C  0.70016219  0.12733430  0.70153745    -0.14100
H735        H  0.66019374  0.06628814  0.68457112     0.12000
H736        H  0.63762185  0.18405096  0.59560214     0.12000
H737        H  0.69092465  0.22936090  0.64242670     0.12000
H738        H  0.71777203  0.11059621  0.73046974     0.12000
C739        C  0.37668300  0.14161064  0.68451068    -0.14100
C740        C  0.35909814  0.12207718  0.64293021     0.08000
C741        C  0.31119280  0.12743953  0.63305849    -0.14100
C742        C  0.28187287  0.15210130  0.66352241    -0.14100
C743        C  0.29943147  0.17215512  0.70473533     0.08000
C744        C  0.34740390  0.16689942  0.71467252    -0.14100
H745        H  0.41342312  0.13854130  0.69299956     0.12000
H746        H  0.29614644  0.11285896  0.60155007     0.12000
H747        H  0.24549685  0.15670889  0.65419375     0.12000
H748        H  0.36281037  0.18402719  0.74469407     0.12000
C749        C  0.35537391  0.17595038  0.87420844    -0.14100
C750        C  0.35838028  0.12813919  0.86861931     0.08000
C751        C  0.32898354  0.10595655  0.83612521    -0.14100
C752        C  0.29784277  0.13174288  0.80849182    -0.14100
C753        C  0.29600406  0.18018439  0.81262973     0.08000
C754        C  0.32464355  0.20164422  0.84665614    -0.14100
H755        H  0.37751376  0.19359411  0.89937835     0.12000
H756        H  0.33055039  0.06879420  0.83179705     0.12000
H757        H  0.27605870  0.11403790  0.78313561     0.12000
H758        H  0.32480188  0.23865025  0.85129393     0.12000
C759        C  0.66773157  0.89417387  0.66827315    -0.14100
C760        C  0.64019563  0.87298170  0.63357317     0.08000
C761        C  0.64439819  0.82547392  0.62597531    -0.14100
C762        C  0.67456510  0.79906963  0.65356408    -0.14100
C763        C  0.70174218  0.81964333  0.68925579     0.08000
C764        C  0.69871524  0.86783114  0.69547734    -0.14100
H765        H  0.66511327  0.93102900  0.67437344     0.12000
H766        H  0.62349865  0.80856448  0.59926562     0.12000
H767        H  0.67514317  0.76219930  0.64770697     0.12000
H768        H  0.71936223  0.88488598  0.72222593     0.12000
C769        C  0.68625573  0.87021393  0.86922432    -0.14100
C770        C  0.63875679  0.87734636  0.85871016     0.08000
C771        C  0.62090034  0.85851024  0.81692627    -0.14100
C772        C  0.64958880  0.83231945  0.78704730    -0.14100
C773        C  0.69727682  0.82571895  0.79739656     0.08000
C774        C  0.71503770  0.84481588  0.83896571    -0.14100
H775        H  0.70144445  0.88413117  0.90097340     0.12000
H776        H  0.58440281  0.86294024  0.80799757     0.12000
H777        H  0.63402377  0.81592604  0.75669343     0.12000
H778        H  0.75117778  0.83912258  0.84857558     0.12000
C779        C  0.35319943  0.83134068  0.87457339    -0.14100
C780        C  0.36119789  0.87701466  0.86137485     0.08000
C781        C  0.33888283  0.89457449  0.82135829    -0.14100
C782        C  0.30883996  0.86630913  0.79478114    -0.14100
C783        C  0.30276657  0.81927065  0.80625430     0.08000
C784        C  0.32527125  0.80265007  0.84700739    -0.14100
H785        H  0.37003298  0.81731393  0.90535461     0.12000
H786        H  0.34431431  0.93017286  0.81102358     0.12000
H787        H  0.29134661  0.88098568  0.76470738     0.12000
H788        H  0.32316388  0.76693707  0.85754633     0.12000
C789        C  0.31605183  0.86090325  0.62478718    -0.14100
C790        C  0.36349755  0.86882509  0.63527312     0.08000
C791        C  0.38188882  0.84968292  0.67653732    -0.14100
C792        C  0.35356012  0.82339733  0.70659456    -0.14100
C793        C  0.30566605  0.81706085  0.69702923     0.08000
C794        C  0.28755358  0.83532629  0.65531307    -0.14100
H795        H  0.30062492  0.87480572  0.59325947     0.12000
H796        H  0.41842571  0.85454681  0.68531655     0.12000
H797        H  0.36924482  0.80753995  0.73703925     0.12000
H798        H  0.25123792  0.82961944  0.64626462     0.12000
C799        C  0.32711966  0.60136744  0.84578586    -0.14100
C800        C  0.37048119  0.61644230  0.86306666     0.08000
C801        C  0.38921283  0.65872065  0.84773889    -0.14100
C802        C  0.36375003  0.68684002  0.81774758    -0.14100
C803        C  0.31944335  0.67295519  0.80296008     0.08000
C804        C  0.30181081  0.62952297  0.81552743    -0.14100
H805        H  0.31219170  0.56865395  0.85648191     0.12000
H806        H  0.42292823  0.67071204  0.85999363     0.12000
H807        H  0.37805127  0.71985792  0.80695698     0.12000
H808        H  0.26802448  0.61804158  0.80292108     0.12000
C809        C  0.38917428  0.66411144  0.65034361    -0.14100
C810        C  0.37882176  0.61676275  0.64691730     0.08000
C811        C  0.34014400  0.59843267  0.67079649    -0.14100
C812        C  0.31143390  0.62740114  0.69678270    -0.14100
C813        C  0.32135753  0.67466955  0.69910813     0.08000
C814        C  0.36024906  0.69303328  0.67612943    -0.14100
H815        H  0.41880235  0.67900764  0.63210353     0.12000
H816        H  0.33165464  0.56201300  0.66889225     0.12000
H817        H  0.28131171  0.61310261  0.71470426     0.12000
H818        H  0.36820879  0.72956424  0.67826567     0.12000
C819        C  0.61177410  0.67741902  0.85426021    -0.14100
C820        C  0.61912998  0.62962464  0.85772263     0.08000
C821        C  0.65500878  0.60865376  0.83188404    -0.14100
C822        C  0.68361979  0.63529037  0.80321977    -0.14100
C823        C  0.67698251  0.68309344  0.80098963     0.08000
C824        C  0.64105773  0.70414427  0.82634047    -0.14100
H825        H  0.58462779  0.69438805  0.87425389     0.12000
H826        H  0.66123784  0.57181172  0.83431469     0.12000
H827        H  0.71162392  0.61898613  0.78377483     0.12000
H828        H  0.63583485  0.74113698  0.82459569     0.12000
C829        C  0.61011701  0.64792831  0.67044421    -0.14100
C830        C  0.63229389  0.61888436  0.63807196     0.08000
C831        C  0.68125385  0.61758504  0.63582061    -0.14100
C832        C  0.70768149  0.64658744  0.66454453    -0.14100
C833        C  0.68526875  0.67617980  0.69623758     0.08000
C834        C  0.63646014  0.67647726  0.69931737    -0.14100
H835        H  0.57235176  0.64925250  0.67281507     0.12000
H836        H  0.69891261  0.59557959  0.61073386     0.12000
H837        H  0.74542652  0.64619851  0.66183614     0.12000
H838        H  0.61874078  0.69974276  0.72313788     0.12000
C839        C  0.65631300  0.39191352  0.82011428    -0.14100
C840        C  0.62307343  0.37280471  0.85057755     0.08000
C841        C  0.61669508  0.32470460  0.85230721    -0.14100
C842        C  0.64461170  0.29591147  0.82529550    -0.14100
C843        C  0.67810298  0.31498986  0.79536460     0.08000
C844        C  0.68354519  0.36303740  0.79227821    -0.14100
H845        H  0.66171474  0.42892638  0.81839472     0.12000
H846        H  0.59146199  0.30921261  0.87590927     0.12000
H847        H  0.64052720  0.25885069  0.82823162     0.12000
H848        H  0.71002940  0.37795719  0.76969421     0.12000
C849        C  0.68829286  0.37262466  0.62999913    -0.14100
C850        C  0.63944376  0.36939907  0.62872141     0.08000
C851        C  0.61596427  0.33839974  0.65826767    -0.14100
C852        C  0.64116120  0.31130954  0.68945086    -0.14100
C853        C  0.68996844  0.31453262  0.69054314     0.08000
C854        C  0.71350342  0.34474969  0.66042246    -0.14100
H855        H  0.70698482  0.39581446  0.60682653     0.12000
H856        H  0.57822325  0.33538382  0.65738294     0.12000
H857        H  0.62280820  0.28740611  0.71219883     0.12000
H858        H  0.75125781  0.34701106  0.66066664     0.12000
C859        C  0.39372683  0.34560543  0.82708667    -0.14100
C860        C  0.37297240  0.37506570  0.85996378     0.08000
C861        C  0.32418773  0.37812589  0.86309718    -0.14100
C862        C  0.29631880  0.35040369  0.83482219    -0.14100
C863        C  0.31707949  0.32034375  0.80264865     0.08000
C864        C  0.36583152  0.31820503  0.79854020    -0.14100
H865        H  0.43139823  0.34302415  0.82419873     0.12000
H866        H  0.30765751  0.40050157  0.88862391     0.12000
H867        H  0.25868537  0.35211312  0.83828859     0.12000
H868        H  0.38219416  0.29444996  0.77422763     0.12000
C869        C  0.38614868  0.31507404  0.64128000    -0.14100
C870        C  0.38505799  0.36349106  0.64262116     0.08000
C871        C  0.35339176  0.38629515  0.67207020    -0.14100
C872        C  0.32284347  0.36090622  0.69982705    -0.14100
C873        C  0.32344471  0.31256600  0.69788068     0.08000
C874        C  0.35495656  0.28969194  0.66846310    -0.14100
H875        H  0.40977492  0.29693112  0.61802941     0.12000
H876        H  0.35190008  0.42371310  0.67306832     0.12000
H877        H  0.29815624  0.37883116  0.72216401     0.12000
H878        H  0.35545686  0.25231581  0.66661058     0.12000
loop_ 
_geom_bond_atom_site_label_1 
_geom_bond_atom_site_label_2 
_geom_bond_distance 
_geom_bond_site_symmetry_2 
_ccdc_geom_bond_type 
C1           N19   1.345       .  A
C1           C38   1.457       .  S
C1          C431   1.455       .  S
N2           N19   1.318       .  A
N2           N24   1.317       .  A
N2          Co39   2.059       .  S
C3           N28   1.338       .  A
C3           C41   1.459       .  S
C3           H48   1.081       .  S
H4           C45   1.081       .  S
C5           N29   1.333       .  A
C5            C9   1.454       .  S
C5           H34   1.081       .  S
Co6          N24   2.066   1_556  S
Co6          N14   2.061   1_556  S
Co6         N485   2.057       .  S
Co6         N461   2.059       .  S
Co6         Cl50   2.431       .  S
N7           C45   1.336       .  A
N7           N14   1.318       .  A
N7         Co447   2.067   1_554  S
Co8          N28   2.066       .  S
Co8          N15   2.063       .  S
Co8         N446   2.067       .  S
Co8         N450   2.071       .  S
Co8        Cl489   2.440       .  S
C9           N47   1.348       .  A
C9          C391   1.459       .  S
N10          N17   1.315       .  A
N10          N40   1.318       .  A
N10        Co482   2.060       .  S
N11          N29   1.319       .  A
N11          N47   1.322       .  A
N11        Co447   2.072   1_554  S
N12          C41   1.345       .  A
N12          N22   1.318       .  A
H13          C38   1.082       .  S
N14          N35   1.319       .  A
N15          N33   1.317       .  A
N15          N20   1.319       .  A
C16          N20   1.346       .  A
C16          C44   1.456       .  S
C16         C381   1.457       .  S
N17          C32   1.334       .  A
N17         Co39   2.055       .  S
C18          N46   1.334       .  A
C18          C21   1.454       .  S
C18          H52   1.081       .  S
C21          N42   1.345       .  A
C21         C421   1.451       .  S
N22          N28   1.317       .  A
N22        Co445   2.059       .  S
N23          C49   1.338       .  A
N23          N25   1.317       .  A
N23        Co478   2.065       .  S
N24          C38   1.337       .  A
N25          N53   1.319       .  A
N25         Co43   2.068       .  S
H26          C49   1.081       .  S
H27          C44   1.081       .  S
N29        Co482   2.062       .  S
N30          N42   1.318       .  A
N30          N46   1.316       .  A
N30        Co478   2.056       .  S
C31          N35   1.345       .  A
C31          C45   1.455       .  S
C31         C411   1.455       .  S
C32          C51   1.457       .  S
C32          H36   1.081       .  S
N33          C44   1.335       .  A
N33         Co43   2.059       .  S
C37          N53   1.347       .  A
C37          C49   1.458       .  S
C37         C361   1.464       .  S
Co39        N462   2.065   1_554  S
Co39        N469   2.056   1_554  S
Co39        Cl50   2.437   1_554  S
N40          C51   1.346       .  A
C41         C401   1.458       .  S
Co43        N449   2.060       .  S
Co43        N468   2.062       .  S
Co43       Cl489   2.430       .  S
N46        Co445   2.057       .  S
Cl50       Co447   2.440       .  S
Cl50       Co482   2.430   1_556  S
C51         C371   1.458       .  S
C54          N72   1.350       .  A
C54          C91   1.460       .  S
C54         C321   1.475       .  S
N55          N72   1.326       .  A
N55          N77   1.322       .  A
N55         Co92   2.094   1_565  S
C56          N81   1.341       .  A
C56          C94   1.464       .  S
C56         H101   1.081       .  S
H57          C98   1.081       .  S
C58          N82   1.342       .  A
C58          C62   1.457       .  S
C58          H87   1.082       .  S
Co59         N77   2.092       .  S
Co59         N67   2.105       .  S
Co59         N99   2.102   1_565  S
Co59         N75   2.110   1_565  S
Co59       Cl103   2.475   1_565  S
N60          C98   1.341       .  A
N60          N67   1.321       .  A
N60         Co61   2.086   1_564  S
Co61         N81   2.092   1_556  S
Co61        N503   2.094   1_545  S
Co61        N507   2.088       .  S
Co61       Cl103   2.446   1_556  S
C62         N100   1.349       .  A
C62         C341   1.471       .  S
N63          N70   1.322       .  A
N63          N93   1.330       .  A
N63         Co96   2.108   1_565  S
N64          N82   1.323       .  A
N64         N100   1.326       .  A
N64        Co500   2.094   1_565  S
N65          C94   1.357       .  A
N65          N75   1.330       .  A
H66          C91   1.081       .  S
N67          N88   1.328       .  A
N68          N86   1.323       .  A
N68          N73   1.325       .  A
N68        Co500   2.088       .  S
C69          N73   1.348       .  A
C69          C97   1.462       .  S
C69         C311   1.473       .  S
N70          C85   1.341       .  A
N70        Co531   2.089   1_565  S
C71          N99   1.346       .  A
C71          C74   1.463       .  S
C71         H105   1.081       .  S
C74          N95   1.347       .  A
C74         C291   1.475       .  S
N75          N81   1.322       .  A
N76         C102   1.340       .  A
N76          N78   1.321       .  A
N76        Co531   2.087       .  S
N77          C91   1.343       .  A
N78         N106   1.328       .  A
N78         Co96   2.095       .  S
H79         C102   1.081       .  S
H80          C97   1.081       .  S
N82         Co96   2.085   1_565  S
N83          N95   1.325       .  A
N83          N99   1.323       .  A
N83         Co92   2.088       .  S
C84          N88   1.355       .  A
C84          C98   1.463       .  S
C84         C351   1.490       .  S
C85         C104   1.463       .  S
C85          H89   1.081       .  S
N86          C97   1.344       .  A
N86         Co96   2.097       .  S
C90         N106   1.354       .  A
C90         C102   1.463       .  S
C90         C281   1.487       .  S
Co92        N509   2.089   1_544  S
Co92        N515   2.087   1_554  S
Co92       Cl103   2.445       .  S
N93         C104   1.356       .  A
C94         C301   1.495       .  S
Co96       Cl542   2.474       .  S
Cl103      Co535   2.474   1_554  S
C104        C331   1.492       .  S
C107        N125   1.352       .  A
C107        C144   1.466       .  S
C107        C241   1.490       .  S
N108        N125   1.326       .  A
N108        N130   1.321       .  A
N108       Co145   2.097       .  S
C109        N134   1.342       .  A
C109        C147   1.463       .  S
C109        H154   1.081       .  S
H110        C151   1.081       .  S
C111        N135   1.346       .  A
C111        C115   1.464       .  S
C111        H140   1.081       .  S
Co112       N130   2.095   1_455  S
Co112       N120   2.106   1_455  S
Co112       N152   2.101       .  S
Co112       N128   2.097       .  S
Co112      Cl156   2.468   1_455  S
N113        C151   1.341       .  A
N113        N120   1.321       .  A
N113       Co114   2.089   1_554  S
Co114       N134   2.087   1_656  S
Co114       N556   2.084       .  S
Co114       N560   2.094   1_655  S
Co114      Cl156   2.447   1_556  S
C115        N153   1.347       .  A
C115        C261   1.476       .  S
N116        N123   1.322       .  A
N116        N146   1.325       .  A
N116       Co149   2.093       .  S
N117        N135   1.323       .  A
N117        N153   1.325       .  A
N117       Co553   2.084       .  S
N118        C147   1.353       .  A
N118        N128   1.326       .  A
H119        C144   1.082       .  S
N120        N141   1.329       .  A
N121        N139   1.323       .  A
N121        N126   1.324       .  A
N121       Co553   2.094   1_455  S
C122        N126   1.348       .  A
C122        C150   1.457       .  S
C122        C211   1.469       .  S
N123        C138   1.339       .  A
N123       Co584   2.079       .  S
C124        N152   1.345       .  A
C124        C127   1.462       .  S
C124        H158   1.081       .  S
C127        N148   1.349       .  A
C127        C231   1.476       .  S
N128        N134   1.321       .  A
N129        C155   1.342       .  A
N129        N131   1.322       .  A
N129       Co584   2.096   1_455  S
N130        C144   1.345       .  A
N131        N159   1.330       .  A
N131       Co149   2.108   1_455  S
H132        C155   1.081       .  S
H133        C150   1.081       .  S
N135       Co149   2.104       .  S
N136        N148   1.326       .  A
N136        N152   1.322       .  A
N136       Co145   2.089   1_455  S
C137        N141   1.356       .  A
C137        C151   1.463       .  S
C137        C271   1.492       .  S
C138        C157   1.454       .  S
C138        H142   1.081       .  S
N139        C150   1.343       .  A
N139       Co149   2.084   1_455  S
C143        N159   1.356       .  A
C143        C155   1.464       .  S
C143        C221   1.493       .  S
Co145       N562   2.079   1_554  S
Co145       N568   2.096   1_654  S
Co145      Cl156   2.451       .  S
N146        C157   1.351       .  A
C147        C201   1.486       .  S
Co149      Cl595   2.472       .  S
Cl156      Co588   2.472   1_554  S
C157        C251   1.467       .  S
C160        H161   1.112       .  S
C160        C166   1.543       .  S
C160        C165   1.548       .  S
C160        C164   1.524       .  S
C162        H163   1.112       .  S
C162        C168   1.539       .  S
C162        C167   1.528       .  S
C162        C169   1.546       .  S
C164        C167   1.365       .  D
C164        C434   1.462       .  S
C165        C168   1.384       .  D
C165        C234   1.506       .  S
C166        C169   1.386       .  D
C166        C304   1.502       .  S
C167        C424   1.460       .  S
C168        C224   1.499       .  S
C169        C314   1.505       .  S
C170        H171   1.110       .  S
C170        C176   1.541       .  S
C170        C175   1.550       .  S
C170        C174   1.526       .  S
C172        H173   1.112       .  S
C172        C178   1.534       .  S
C172        C177   1.528       .  S
C172        C179   1.540       .  S
C174        C177   1.365       .  D
C174        C414   1.459       .  S
C175        C178   1.385       .  D
C175        C294   1.512       .  S
C176        C179   1.383       .  D
C176        C244   1.500       .  S
C177        C404   1.461       .  S
C178        C284   1.490       .  S
C179        C254   1.499       .  S
C180        H181   1.112       .  S
C180        C186   1.544       .  S
C180        C185   1.540       .  S
C180        C184   1.525       .  S
C182        H183   1.103       .  S
C182        C188   1.544       .  S
C182        C187   1.527       .  S
C182        C189   1.543       .  S
C184        C187   1.360       .  D
C184        C374   1.453       .  S
C185        C188   1.385       .  D
C185        C354   1.497       .  S
C186        C189   1.388       .  D
C186        C204   1.492       .  S
C187        C364   1.460       .  S
C188        C344   1.511       .  S
C189        C214   1.515       .  S
C190        H191   1.111       .  S
C190        C196   1.549       .  S
C190        C195   1.543       .  S
C190        C194   1.526       .  S
C192        H193   1.111       .  S
C192        C198   1.546       .  S
C192        C197   1.525       .  S
C192        C199   1.537       .  S
C194        C197   1.364       .  D
C194        C394   1.465       .  S
C195        C198   1.388       .  D
C195        C274   1.500       .  S
C196        C199   1.383       .  D
C196        C324   1.504       .  S
C197        C384   1.457       .  S
C198        C264   1.507       .  S
C199        C334   1.499       .  S
C200        H206   1.083       .  S
C200        C201   1.404       .  A
C200        C205   1.400       .  A
C201        C202   1.408       .  A
C202        H207   1.081       .  S
C202        C203   1.403       .  A
C203        H208   1.084       .  S
C203        C204   1.402       .  A
C204        C205   1.408       .  A
C205        H209   1.082       .  S
C210        H216   1.084       .  S
C210        C211   1.389       .  A
C210        C215   1.389       .  A
C211        C212   1.406       .  A
C212        H217   1.084       .  S
C212        C213   1.409       .  A
C213        H218   1.081       .  S
C213        C214   1.411       .  A
C214        C215   1.415       .  A
C215        H219   1.077       .  S
C220        H226   1.083       .  S
C220        C221   1.406       .  A
C220        C225   1.406       .  A
C221        C222   1.408       .  A
C222        H227   1.081       .  S
C222        C223   1.404       .  A
C223        H228   1.083       .  S
C223        C224   1.403       .  A
C224        C225   1.409       .  A
C225        H229   1.082       .  S
C230        H236   1.083       .  S
C230        C231   1.406       .  A
C230        C235   1.407       .  A
C231        C232   1.396       .  A
C232        H237   1.085       .  S
C232        C233   1.398       .  A
C233        H238   1.077       .  S
C233        C234   1.412       .  A
C234        C235   1.407       .  A
C235        H239   1.083       .  S
C240        H246   1.083       .  S
C240        C241   1.405       .  A
C240        C245   1.404       .  A
C241        C242   1.407       .  A
C242        H247   1.082       .  S
C242        C243   1.403       .  A
C243        H248   1.083       .  S
C243        C244   1.403       .  A
C244        C245   1.410       .  A
C245        H249   1.082       .  S
C250        H256   1.084       .  S
C250        C251   1.394       .  A
C250        C255   1.394       .  A
C251        C252   1.404       .  A
C252        H257   1.083       .  S
C252        C253   1.403       .  A
C253        H258   1.083       .  S
C253        C254   1.406       .  A
C254        C255   1.412       .  A
C255        H259   1.078       .  S
C260        H266   1.083       .  S
C260        C261   1.407       .  A
C260        C265   1.408       .  A
C261        C262   1.394       .  A
C262        H267   1.084       .  S
C262        C263   1.396       .  A
C263        H268   1.078       .  S
C263        C264   1.413       .  A
C264        C265   1.408       .  A
C265        H269   1.083       .  S
C270        H276   1.081       .  S
C270        C271   1.408       .  A
C270        C275   1.402       .  A
C271        C272   1.405       .  A
C272        H277   1.083       .  S
C272        C273   1.404       .  A
C273        H278   1.081       .  S
C273        C274   1.410       .  A
C274        C275   1.404       .  A
C275        H279   1.084       .  S
C280        H286   1.082       .  S
C280        C281   1.407       .  A
C280        C285   1.400       .  A
C281        C282   1.405       .  A
C282        H287   1.083       .  S
C282        C283   1.402       .  A
C283        H288   1.083       .  S
C283        C284   1.407       .  A
C284        C285   1.401       .  A
C285        H289   1.083       .  S
C290        H296   1.083       .  S
C290        C291   1.405       .  A
C290        C295   1.407       .  A
C291        C292   1.395       .  A
C292        H297   1.084       .  S
C292        C293   1.396       .  A
C293        H298   1.078       .  S
C293        C294   1.414       .  A
C294        C295   1.410       .  A
C295        H299   1.083       .  S
C300        H306   1.083       .  S
C300        C301   1.406       .  A
C300        C305   1.406       .  A
C301        C302   1.409       .  A
C302        H307   1.082       .  S
C302        C303   1.403       .  A
C303        H308   1.083       .  S
C303        C304   1.403       .  A
C304        C305   1.411       .  A
C305        H309   1.082       .  S
C310        H316   1.084       .  S
C310        C311   1.395       .  A
C310        C315   1.396       .  A
C311        C312   1.406       .  A
C312        H317   1.083       .  S
C312        C313   1.406       .  A
C313        H318   1.083       .  S
C313        C314   1.407       .  A
C314        C315   1.413       .  A
C315        H319   1.079       .  S
C320        H326   1.083       .  S
C320        C321   1.405       .  A
C320        C325   1.405       .  A
C321        C322   1.397       .  A
C322        H327   1.084       .  S
C322        C323   1.398       .  A
C323        H328   1.080       .  S
C323        C324   1.412       .  A
C324        C325   1.408       .  A
C325        H329   1.083       .  S
C330        H336   1.082       .  S
C330        C331   1.408       .  A
C330        C335   1.401       .  A
C331        C332   1.406       .  A
C332        H337   1.083       .  S
C332        C333   1.405       .  A
C333        H338   1.082       .  S
C333        C334   1.410       .  A
C334        C335   1.403       .  A
C335        H339   1.083       .  S
C340        H346   1.082       .  S
C340        C341   1.393       .  A
C340        C345   1.394       .  A
C341        C342   1.405       .  A
C342        H347   1.082       .  S
C342        C343   1.407       .  A
C343        H348   1.081       .  S
C343        C344   1.410       .  A
C344        C345   1.415       .  A
C345        H349   1.078       .  S
C350        H356   1.081       .  S
C350        C351   1.408       .  A
C350        C355   1.403       .  A
C351        C352   1.405       .  A
C352        H357   1.084       .  S
C352        C353   1.403       .  A
C353        H358   1.081       .  S
C353        C354   1.409       .  A
C354        C355   1.403       .  A
C355        H359   1.083       .  S
C360        H366   1.081       .  S
C360        C361   1.404       .  A
C360        C365   1.392       .  A
C361        C362   1.404       .  A
C362        H367   1.082       .  S
C362        C363   1.389       .  A
C363        H368   1.083       .  S
C363        C364   1.394       .  A
C364        C365   1.400       .  A
C365        H369   1.083       .  S
C370        H376   1.083       .  S
C370        C371   1.404       .  A
C370        C375   1.388       .  A
C371        C372   1.402       .  A
C372        H377   1.082       .  S
C372        C373   1.388       .  A
C373        H378   1.083       .  S
C373        C374   1.397       .  A
C374        C375   1.395       .  A
C375        H379   1.082       .  S
C380        H386   1.082       .  S
C380        C381   1.403       .  A
C380        C385   1.390       .  A
C381        C382   1.402       .  A
C382        H387   1.083       .  S
C382        C383   1.389       .  A
C383        H388   1.083       .  S
C383        C384   1.398       .  A
C384        C385   1.397       .  A
C385        H389   1.082       .  S
C390        H396   1.083       .  S
C390        C391   1.401       .  A
C390        C395   1.387       .  A
C391        C392   1.403       .  A
C392        H397   1.083       .  S
C392        C393   1.394       .  A
C393        H398   1.083       .  S
C393        C394   1.401       .  A
C394        C395   1.399       .  A
C395        H399   1.083       .  S
C400        H406   1.083       .  S
C400        C401   1.401       .  A
C400        C405   1.392       .  A
C401        C402   1.404       .  A
C402        H407   1.083       .  S
C402        C403   1.388       .  A
C403        H408   1.082       .  S
C403        C404   1.396       .  A
C404        C405   1.401       .  A
C405        H409   1.083       .  S
C410        H416   1.082       .  S
C410        C411   1.401       .  A
C410        C415   1.389       .  A
C411        C412   1.401       .  A
C412        H417   1.083       .  S
C412        C413   1.390       .  A
C413        H418   1.083       .  S
C413        C414   1.400       .  A
C414        C415   1.398       .  A
C415        H419   1.082       .  S
C420        H426   1.084       .  S
C420        C421   1.399       .  A
C420        C425   1.387       .  A
C421        C422   1.402       .  A
C422        H427   1.083       .  S
C422        C423   1.388       .  A
C423        H428   1.082       .  S
C423        C424   1.397       .  A
C424        C425   1.401       .  A
C425        H429   1.083       .  S
C430        H436   1.083       .  S
C430        C431   1.402       .  A
C430        C435   1.390       .  A
C431        C432   1.401       .  A
C432        H437   1.084       .  S
C432        C433   1.388       .  A
C433        H438   1.084       .  S
C433        C434   1.400       .  A
C434        C435   1.398       .  A
C435        H439   1.083       .  S
C440        N458   1.345       .  A
C440        C477   1.457       .  S
C440        C870   1.455       .  S
N441        N458   1.318       .  A
N441        N463   1.317       .  A
N441       Co478   2.059       .  S
C442        N467   1.338       .  A
C442        C480   1.459       .  S
C442        H487   1.081       .  S
H443        C484   1.081       .  S
C444        N468   1.333       .  A
C444        C448   1.454       .  S
C444        H473   1.081       .  S
Co445       N463   2.066       .  S
Co445       N453   2.061       .  S
Co445      Cl489   2.431       .  S
N446        C484   1.336       .  A
N446        N453   1.318       .  A
Co447       N467   2.066       .  S
Co447       N454   2.063       .  S
C448        N486   1.348       .  A
C448        C830   1.459       .  S
N449        N456   1.315       .  A
N449        N479   1.318       .  A
N450        N468   1.319       .  A
N450        N486   1.322       .  A
N451        C480   1.345       .  A
N451        N461   1.318       .  A
H452        C477   1.082       .  S
N453        N474   1.319       .  A
N454        N472   1.317       .  A
N454        N459   1.319       .  A
C455        N459   1.346       .  A
C455        C483   1.456       .  S
C455        C820   1.457       .  S
N456        C471   1.334       .  A
N456       Co478   2.055       .  S
C457        N485   1.334       .  A
C457        C460   1.454       .  S
C457        H491   1.081       .  S
C460        N481   1.345       .  A
C460        C860   1.451       .  S
N461        N467   1.317       .  A
N462        C488   1.338       .  A
N462        N464   1.317       .  A
N463        C477   1.337       .  A
N464        N492   1.319       .  A
N464       Co482   2.068   1_556  S
H465        C488   1.081       .  S
H466        C483   1.081       .  S
N469        N481   1.318       .  A
N469        N485   1.316       .  A
C470        N474   1.345       .  A
C470        C484   1.455       .  S
C470        C850   1.455       .  S
C471        C490   1.457       .  S
C471        H475   1.081       .  S
N472        C483   1.335       .  A
N472       Co482   2.059   1_556  S
C476        N492   1.347       .  A
C476        C488   1.458       .  S
C476        C800   1.464       .  S
Co478      Cl489   2.437       .  S
N479        C490   1.346       .  A
C480        C840   1.458       .  S
C490        C810   1.458       .  S
C493        N511   1.350       .  A
C493        C530   1.460       .  S
C493        C760   1.475       .  S
N494        N511   1.326       .  A
N494        N516   1.322       .  A
N494       Co531   2.094   1_565  S
C495        N520   1.341       .  A
C495        C533   1.464       .  S
C495        H540   1.081       .  S
H496        C537   1.081       .  S
C497        N521   1.342       .  A
C497        C501   1.457       .  S
C497        H526   1.082       .  S
Co498       N516   2.092       .  S
Co498       N506   2.105       .  S
Co498       N538   2.102   1_565  S
Co498       N514   2.110   1_565  S
Co498      Cl542   2.475   1_565  S
N499        C537   1.341       .  A
N499        N506   1.321       .  A
N499       Co500   2.086   1_565  S
Co500       N520   2.092       .  S
Co500      Cl542   2.446       .  S
C501        N539   1.349       .  A
C501        C780   1.471       .  S
N502        N509   1.322       .  A
N502        N532   1.330       .  A
N502       Co535   2.108   1_565  S
N503        N521   1.323       .  A
N503        N539   1.326       .  A
N504        C533   1.357       .  A
N504        N514   1.330       .  A
H505        C530   1.081       .  S
N506        N527   1.328       .  A
N507        N525   1.323       .  A
N507        N512   1.325       .  A
C508        N512   1.348       .  A
C508        C536   1.462       .  S
C508        C750   1.473       .  S
N509        C524   1.341       .  A
C510        N538   1.346       .  A
C510        C513   1.463       .  S
C510        H544   1.081       .  S
C513        N534   1.347       .  A
C513        C730   1.475       .  S
N514        N520   1.322       .  A
N515        C541   1.340       .  A
N515        N517   1.321       .  A
N516        C530   1.343       .  A
N517        N545   1.328       .  A
N517       Co535   2.095       .  S
H518        C541   1.081       .  S
H519        C536   1.081       .  S
N521       Co535   2.085   1_565  S
N522        N534   1.325       .  A
N522        N538   1.323       .  A
N522       Co531   2.088       .  S
C523        N527   1.355       .  A
C523        C537   1.463       .  S
C523        C790   1.490       .  S
C524        C543   1.463       .  S
C524        H528   1.081       .  S
N525        C536   1.344       .  A
N525       Co535   2.097       .  S
C529        N545   1.354       .  A
C529        C541   1.463       .  S
C529        C720   1.487       .  S
Co531      Cl542   2.445       .  S
N532        C543   1.356       .  A
C533        C740   1.495       .  S
C543        C770   1.492       .  S
C546        N564   1.352       .  A
C546        C583   1.466       .  S
C546        C680   1.490       .  S
N547        N564   1.326       .  A
N547        N569   1.321       .  A
N547       Co584   2.097       .  S
C548        N573   1.342       .  A
C548        C586   1.463       .  S
C548        H593   1.081       .  S
H549        C590   1.081       .  S
C550        N574   1.346       .  A
C550        C554   1.464       .  S
C550        H579   1.081       .  S
Co551       N569   2.095   1_455  S
Co551       N559   2.106   1_455  S
Co551       N591   2.101       .  S
Co551       N567   2.097       .  S
Co551      Cl595   2.468   1_455  S
N552        C590   1.341       .  A
N552        N559   1.321       .  A
N552       Co553   2.089       .  S
Co553       N573   2.087   1_655  S
Co553      Cl595   2.447       .  S
C554        N592   1.347       .  A
C554        C700   1.476       .  S
N555        N562   1.322       .  A
N555        N585   1.325       .  A
N555       Co588   2.093       .  S
N556        N574   1.323       .  A
N556        N592   1.325       .  A
N557        C586   1.353       .  A
N557        N567   1.326       .  A
H558        C583   1.082       .  S
N559        N580   1.329       .  A
N560        N578   1.323       .  A
N560        N565   1.324       .  A
C561        N565   1.348       .  A
C561        C589   1.457       .  S
C561        C650   1.469       .  S
N562        C577   1.339       .  A
C563        N591   1.345       .  A
C563        C566   1.462       .  S
C563        H597   1.081       .  S
C566        N587   1.349       .  A
C566        C670   1.476       .  S
N567        N573   1.321       .  A
N568        C594   1.342       .  A
N568        N570   1.322       .  A
N569        C583   1.345       .  A
N570        N598   1.330       .  A
N570       Co588   2.108   1_455  S
H571        C594   1.081       .  S
H572        C589   1.081       .  S
N574       Co588   2.104       .  S
N575        N587   1.326       .  A
N575        N591   1.322       .  A
N575       Co584   2.089   1_455  S
C576        N580   1.356       .  A
C576        C590   1.463       .  S
C576        C710   1.492       .  S
C577        C596   1.454       .  S
C577        H581   1.081       .  S
N578        C589   1.343       .  A
N578       Co588   2.084   1_455  S
C582        N598   1.356       .  A
C582        C594   1.464       .  S
C582        C660   1.493       .  S
Co584      Cl595   2.451       .  S
N585        C596   1.351       .  A
C586        C640   1.486       .  S
C596        C690   1.467       .  S
C599        H600   1.111       .  S
C599        C605   1.543       .  S
C599        C604   1.548       .  S
C599        C603   1.524       .  S
C601        H602   1.112       .  S
C601        C607   1.539       .  S
C601        C606   1.528       .  S
C601        C608   1.546       .  S
C603        C606   1.365       .  D
C603        C873   1.462       .  S
C604        C607   1.384       .  D
C604        C673   1.506       .  S
C605        C608   1.386       .  D
C605        C743   1.502       .  S
C606        C863   1.460       .  S
C607        C663   1.499       .  S
C608        C753   1.505       .  S
C609        H610   1.110       .  S
C609        C615   1.541       .  S
C609        C614   1.550       .  S
C609        C613   1.526       .  S
C611        H612   1.112       .  S
C611        C617   1.534       .  S
C611        C616   1.528       .  S
C611        C618   1.540       .  S
C613        C616   1.365       .  D
C613        C853   1.459       .  S
C614        C617   1.385       .  D
C614        C733   1.512       .  S
C615        C618   1.383       .  D
C615        C683   1.500       .  S
C616        C843   1.461       .  S
C617        C723   1.490       .  S
C618        C693   1.499       .  S
C619        H620   1.112       .  S
C619        C625   1.544       .  S
C619        C624   1.540       .  S
C619        C623   1.525       .  S
C621        H622   1.103       .  S
C621        C627   1.544       .  S
C621        C626   1.527       .  S
C621        C628   1.543       .  S
C623        C626   1.360       .  D
C623        C813   1.453       .  S
C624        C627   1.385       .  D
C624        C793   1.497       .  S
C625        C628   1.388       .  D
C625        C643   1.492       .  S
C626        C803   1.460       .  S
C627        C783   1.511       .  S
C628        C653   1.515       .  S
C629        H630   1.111       .  S
C629        C635   1.549       .  S
C629        C634   1.543       .  S
C629        C633   1.526       .  S
C631        H632   1.111       .  S
C631        C637   1.546       .  S
C631        C636   1.525       .  S
C631        C638   1.537       .  S
C633        C636   1.364       .  D
C633        C833   1.465       .  S
C634        C637   1.388       .  D
C634        C713   1.500       .  S
C635        C638   1.383       .  D
C635        C763   1.504       .  S
C636        C823   1.457       .  S
C637        C703   1.507       .  S
C638        C773   1.499       .  S
C639        H645   1.083       .  S
C639        C640   1.404       .  A
C639        C644   1.400       .  A
C640        C641   1.408       .  A
C641        H646   1.081       .  S
C641        C642   1.403       .  A
C642        H647   1.084       .  S
C642        C643   1.402       .  A
C643        C644   1.408       .  A
C644        H648   1.082       .  S
C649        H655   1.084       .  S
C649        C650   1.389       .  A
C649        C654   1.389       .  A
C650        C651   1.406       .  A
C651        H656   1.084       .  S
C651        C652   1.409       .  A
C652        H657   1.081       .  S
C652        C653   1.411       .  A
C653        C654   1.415       .  A
C654        H658   1.077       .  S
C659        H665   1.083       .  S
C659        C660   1.406       .  A
C659        C664   1.406       .  A
C660        C661   1.408       .  A
C661        H666   1.081       .  S
C661        C662   1.404       .  A
C662        H667   1.083       .  S
C662        C663   1.403       .  A
C663        C664   1.409       .  A
C664        H668   1.082       .  S
C669        H675   1.083       .  S
C669        C670   1.406       .  A
C669        C674   1.407       .  A
C670        C671   1.396       .  A
C671        H676   1.085       .  S
C671        C672   1.398       .  A
C672        H677   1.077       .  S
C672        C673   1.412       .  A
C673        C674   1.407       .  A
C674        H678   1.083       .  S
C679        H685   1.083       .  S
C679        C680   1.405       .  A
C679        C684   1.404       .  A
C680        C681   1.407       .  A
C681        H686   1.082       .  S
C681        C682   1.403       .  A
C682        H687   1.083       .  S
C682        C683   1.403       .  A
C683        C684   1.410       .  A
C684        H688   1.082       .  S
C689        H695   1.084       .  S
C689        C690   1.394       .  A
C689        C694   1.394       .  A
C690        C691   1.404       .  A
C691        H696   1.083       .  S
C691        C692   1.403       .  A
C692        H697   1.083       .  S
C692        C693   1.406       .  A
C693        C694   1.412       .  A
C694        H698   1.078       .  S
C699        H705   1.083       .  S
C699        C700   1.407       .  A
C699        C704   1.408       .  A
C700        C701   1.394       .  A
C701        H706   1.084       .  S
C701        C702   1.396       .  A
C702        H707   1.078       .  S
C702        C703   1.413       .  A
C703        C704   1.408       .  A
C704        H708   1.083       .  S
C709        H715   1.081       .  S
C709        C710   1.408       .  A
C709        C714   1.402       .  A
C710        C711   1.405       .  A
C711        H716   1.083       .  S
C711        C712   1.404       .  A
C712        H717   1.081       .  S
C712        C713   1.410       .  A
C713        C714   1.404       .  A
C714        H718   1.084       .  S
C719        H725   1.082       .  S
C719        C720   1.407       .  A
C719        C724   1.400       .  A
C720        C721   1.405       .  A
C721        H726   1.083       .  S
C721        C722   1.402       .  A
C722        H727   1.083       .  S
C722        C723   1.407       .  A
C723        C724   1.401       .  A
C724        H728   1.083       .  S
C729        H735   1.083       .  S
C729        C730   1.405       .  A
C729        C734   1.407       .  A
C730        C731   1.395       .  A
C731        H736   1.084       .  S
C731        C732   1.396       .  A
C732        H737   1.078       .  S
C732        C733   1.414       .  A
C733        C734   1.410       .  A
C734        H738   1.083       .  S
C739        H745   1.083       .  S
C739        C740   1.406       .  A
C739        C744   1.406       .  A
C740        C741   1.409       .  A
C741        H746   1.082       .  S
C741        C742   1.403       .  A
C742        H747   1.083       .  S
C742        C743   1.403       .  A
C743        C744   1.411       .  A
C744        H748   1.083       .  S
C749        H755   1.084       .  S
C749        C750   1.395       .  A
C749        C754   1.396       .  A
C750        C751   1.406       .  A
C751        H756   1.083       .  S
C751        C752   1.406       .  A
C752        H757   1.083       .  S
C752        C753   1.407       .  A
C753        C754   1.413       .  A
C754        H758   1.079       .  S
C759        H765   1.083       .  S
C759        C760   1.405       .  A
C759        C764   1.405       .  A
C760        C761   1.397       .  A
C761        H766   1.084       .  S
C761        C762   1.398       .  A
C762        H767   1.080       .  S
C762        C763   1.412       .  A
C763        C764   1.408       .  A
C764        H768   1.083       .  S
C769        H775   1.082       .  S
C769        C770   1.408       .  A
C769        C774   1.401       .  A
C770        C771   1.406       .  A
C771        H776   1.083       .  S
C771        C772   1.405       .  A
C772        H777   1.082       .  S
C772        C773   1.410       .  A
C773        C774   1.403       .  A
C774        H778   1.083       .  S
C779        H785   1.082       .  S
C779        C780   1.393       .  A
C779        C784   1.394       .  A
C780        C781   1.405       .  A
C781        H786   1.082       .  S
C781        C782   1.407       .  A
C782        H787   1.081       .  S
C782        C783   1.410       .  A
C783        C784   1.415       .  A
C784        H788   1.078       .  S
C789        H795   1.081       .  S
C789        C790   1.408       .  A
C789        C794   1.403       .  A
C790        C791   1.405       .  A
C791        H796   1.084       .  S
C791        C792   1.403       .  A
C792        H797   1.081       .  S
C792        C793   1.409       .  A
C793        C794   1.403       .  A
C794        H798   1.083       .  S
C799        H805   1.081       .  S
C799        C800   1.404       .  A
C799        C804   1.392       .  A
C800        C801   1.404       .  A
C801        H806   1.082       .  S
C801        C802   1.389       .  A
C802        H807   1.083       .  S
C802        C803   1.394       .  A
C803        C804   1.400       .  A
C804        H808   1.083       .  S
C809        H815   1.083       .  S
C809        C810   1.404       .  A
C809        C814   1.388       .  A
C810        C811   1.402       .  A
C811        H816   1.082       .  S
C811        C812   1.388       .  A
C812        H817   1.083       .  S
C812        C813   1.397       .  A
C813        C814   1.395       .  A
C814        H818   1.082       .  S
C819        H825   1.082       .  S
C819        C820   1.403       .  A
C819        C824   1.390       .  A
C820        C821   1.402       .  A
C821        H826   1.083       .  S
C821        C822   1.389       .  A
C822        H827   1.083       .  S
C822        C823   1.398       .  A
C823        C824   1.397       .  A
C824        H828   1.082       .  S
C829        H835   1.083       .  S
C829        C830   1.401       .  A
C829        C834   1.387       .  A
C830        C831   1.403       .  A
C831        H836   1.083       .  S
C831        C832   1.394       .  A
C832        H837   1.083       .  S
C832        C833   1.401       .  A
C833        C834   1.399       .  A
C834        H838   1.083       .  S
C839        H845   1.083       .  S
C839        C840   1.401       .  A
C839        C844   1.392       .  A
C840        C841   1.404       .  A
C841        H846   1.083       .  S
C841        C842   1.388       .  A
C842        H847   1.082       .  S
C842        C843   1.396       .  A
C843        C844   1.401       .  A
C844        H848   1.083       .  S
C849        H855   1.082       .  S
C849        C850   1.401       .  A
C849        C854   1.389       .  A
C850        C851   1.401       .  A
C851        H856   1.083       .  S
C851        C852   1.390       .  A
C852        H857   1.083       .  S
C852        C853   1.400       .  A
C853        C854   1.398       .  A
C854        H858   1.082       .  S
C859        H865   1.084       .  S
C859        C860   1.399       .  A
C859        C864   1.387       .  A
C860        C861   1.402       .  A
C861        H866   1.083       .  S
C861        C862   1.388       .  A
C862        H867   1.082       .  S
C862        C863   1.397       .  A
C863        C864   1.401       .  A
C864        H868   1.083       .  S
C869        H875   1.083       .  S
C869        C870   1.402       .  A
C869        C874   1.390       .  A
C870        C871   1.401       .  A
C871        H876   1.084       .  S
C871        C872   1.388       .  A
C872        H877   1.084       .  S
C872        C873   1.400       .  A
C873        C874   1.398       .  A
C874        H878   1.083       .  S
