geometry optimzed in LAMMPS
_audit_creation_date              2020-11-30 
_audit_creation_method            'lammps2cif' 
_symmetry_space_group_name_H-M    'P1' 
_symmetry_Int_Tables_number       1 
_symmetry_cell_setting            triclinic 
loop_ 
_symmetry_equiv_pos_as_xyz 
  x,y,z 
_cell_length_a                    35.70037259 
_cell_length_b                    46.082203097155414 
_cell_length_c                    28.949272556050374 
_cell_angle_alpha                 89.99009272368102 
_cell_angle_beta                  90.01281209375138 
_cell_angle_gamma                 90.02595200747724 
loop_ 
_atom_site_label 
_atom_site_type_symbol 
_atom_site_fract_x 
_atom_site_fract_y 
_atom_site_fract_z 
_atom_site_charge 
C1          C  0.16082511  0.26583678  0.36491953     0.79700
N2          N  0.17450511  0.28915248  0.38825618    -0.78600
C3          C  0.15493604  0.30047765  0.42418809     0.82200
N4          N  0.12132890  0.28894930  0.43595582    -0.78500
C5          C  0.10741835  0.26574805  0.41284093     0.82200
N6          N  0.12708821  0.25426540  0.37702367    -0.80300
C7          C  0.29273125  0.18794011  0.06869661     0.79700
N8          N  0.27891129  0.16478400  0.04514934    -0.78600
C9          C  0.29697188  0.15492041  0.00706724     0.82200
N10         N  0.32955489  0.16739021  0.49370647    -0.78500
C11         C  0.34433918  0.18977153  0.01800949     0.82200
N12         N  0.32574740  0.20018982  0.05540859    -0.80300
O13         O  0.18328205  0.28893508  0.18464441    -0.79000
C14         C  0.13223883  0.20205419  0.17507454     0.82000
O15         O  0.21295068  0.24390947  0.32804069    -0.80100
O16         O  0.23028336  0.15609053  0.23347455    -0.81600
O17         O  0.28158586  0.22422758  0.12410886    -0.81400
O18         O  0.23888576  0.28676436  0.14973457    -0.80000
Zn19       Zn  0.17871018  0.25037304  0.21841172     1.55700
O20         O  0.24764246  0.18363305  0.12834374    -0.81400
Cd21       Cd  0.26222613  0.24964872  0.17730290     1.59700
Cd22       Cd  0.24727334  0.22330897  0.27967601     1.59600
O23         O  0.30872169  0.26146619  0.21479058    -0.81400
O24         O  0.22540711  0.22827490  0.21622981    -1.91900
Cd25       Cd  0.21618576  0.18919587  0.18810486     1.59900
O26         O  0.30166387  0.24022612  0.28350025    -0.81400
O27         O  0.15976933  0.18449299  0.17328546    -0.80000
C28         C  0.18047814  0.25520818  0.32383243     0.82500
C29         C  0.20798418  0.29956118  0.15773608     0.82200
O30         O  0.13578887  0.22803216  0.18941081    -0.79000
C31         C  0.27279991  0.19917963  0.10915752     0.83000
O32         O  0.16441199  0.25798633  0.28478371    -0.79100
C33         C  0.32079612  0.25531255  0.25497806     0.83100
C34         C  0.24234227  0.15604474  0.27491146     0.83400
O35         O  0.24955093  0.17948398  0.29669563    -0.81500
C36         C  0.18065837  0.35258138  0.01541766     0.79700
N37         N  0.17588034  0.37813044  0.49268116    -0.78600
C38         C  0.16772375  0.37827253  0.44688843     0.82200
N39         N  0.16314652  0.35278101  0.42414782    -0.78500
C40         C  0.16713720  0.32719990  0.44677561     0.82200
N41         N  0.17539248  0.32713606  0.49255759    -0.80300
C42         C  0.20006643  0.37812569  0.13420202     0.79700
N43         N  0.19287889  0.37800061  0.08818720    -0.78600
C44         C  0.18911808  0.35253155  0.06509980     0.82200
N45         N  0.19347697  0.32708983  0.08816249    -0.78500
C46         C  0.20065805  0.32706371  0.13422405     0.82200
N47         N  0.20404558  0.35262437  0.15728449    -0.80300
C48         C  0.15943090  0.43795969  0.36248078     0.79700
N49         N  0.17413466  0.41551214  0.38695534    -0.78600
C50         C  0.15571478  0.40508206  0.42445405     0.82200
N51         N  0.12256701  0.41696717  0.43712011    -0.78500
C52         C  0.10723940  0.43892254  0.41228531     0.82200
N53         N  0.12554950  0.44921983  0.37451560    -0.80300
C54         C  0.29173701  0.01600881  0.06647754     0.79700
N55         N  0.27893078  0.03991393  0.04396689    -0.78600
C56         C  0.29819909  0.05066894  0.00739739     0.82200
N57         N  0.33125273  0.03856765  0.49493774    -0.78500
C58         C  0.34452837  0.01498288  0.01754775     0.82200
N59         N  0.32454310  0.50346501  0.05303521    -0.80300
O60         O  0.13449143  0.47863507  0.18941813    -0.79000
C61         C  0.20719564  0.40571057  0.15745128     0.82000
O62         O  0.21133471  0.46048775  0.32649147    -0.80100
O63         O  0.30841245  0.44461010  0.21562213    -0.81600
O64         O  0.24695869  0.02087113  0.12656120    -0.81400
O65         O  0.15951887  0.02193860  0.17408515    -0.80000
Zn66       Zn  0.17735935  0.45537534  0.21676528     1.55700
O67         O  0.28058791  0.48010317  0.12275108    -0.81400
Cd68       Cd  0.21603732  0.01615983  0.18724666     1.59700
Cd69       Cd  0.24577293  0.48177423  0.27927568     1.59600
O70         O  0.23110327  0.04908217  0.23269869    -0.81400
O71         O  0.22455414  0.47702053  0.21541084    -1.91900
Cd72       Cd  0.26180835  0.45544851  0.17735799     1.59900
O73         O  0.24765401  0.02548402  0.29689926    -0.81400
O74         O  0.23892102  0.41772729  0.15146264    -0.80000
C75         C  0.17905550  0.44894877  0.32173107     0.82500
C76         C  0.13147347  0.00487252  0.17611867     0.82200
O77         O  0.18155496  0.41720023  0.18199085    -0.79000
C78         C  0.27175451  0.00501436  0.10722904     0.83000
O79         O  0.16307484  0.44659867  0.28259906    -0.79100
C80         C  0.24184015  0.04900007  0.27471732     0.83100
C81         C  0.31998682  0.45066077  0.25610558     0.83400
O82         O  0.30026006  0.46531618  0.28450043    -0.81500
C83         C  0.24781264  0.12812680  0.29875280     0.79700
N84         N  0.25747802  0.12791417  0.34410477    -0.78600
C85         C  0.26211286  0.10245414  0.36694609     0.82200
N86         N  0.25714583  0.07699651  0.34413562    -0.78500
C87         C  0.24750036  0.07686683  0.29873078     0.82200
N88         N  0.24268981  0.10251892  0.27611500    -0.80300
C89         C  0.27192303  0.10252309  0.41622167     0.79700
N90         N  0.27670420  0.12807832  0.43891142    -0.78600
C91         C  0.28523544  0.12818842  0.48459494     0.82200
N92         N  0.29007156  0.10277855  0.00729497    -0.78500
C93         C  0.28619180  0.07725326  0.48467247     0.82200
N94         N  0.27755210  0.07710891  0.43900150    -0.80300
C95         C  0.04150093  0.19084753  0.11527018     0.79700
N96         N  0.02763731  0.16793141  0.13943880    -0.78600
C97         C  0.04714445  0.15700669  0.17575452     0.82200
N98         N  0.08088545  0.16843819  0.18696340    -0.78500
C99         C  0.09497852  0.19119335  0.16300163     0.82200
N100        N  0.07538955  0.20234578  0.12685598    -0.80300
C101        C  0.40923496  0.26860205  0.31927375     0.79700
N102        N  0.42289028  0.29198449  0.29613393    -0.78600
C103        C  0.40471607  0.30211375  0.25829277     0.82200
N104        N  0.37221781  0.28955784  0.24463530    -0.78500
C105        C  0.35758303  0.26691332  0.26854362     0.82200
N106        N  0.37628994  0.25631183  0.30576159    -0.80300
O107        O  0.03795172  0.19845173  0.03500594    -0.79000
C108        C  0.49387515  0.15623212  0.40842883     0.82000
O109        O  0.04256807  0.27212926  0.42380019    -0.80100
O110        O  0.42069920  0.23194829  0.37411661    -0.81600
O111        O  0.40054834  0.21581674  0.03356574    -0.81400
O112        O  0.48916636  0.21217452  0.07813275    -0.80000
Zn113      Zn  0.02379346  0.20588735  0.46837588     1.55700
O114        O  0.39330287  0.19503860  0.46458011    -0.81400
Cd115      Cd  0.45487520  0.23255452  0.02970232     1.59700
Cd116      Cd  0.48613858  0.26691318  0.43841234     1.59600
O117        O  0.45204602  0.27617385  0.04699057    -0.81400
O118        O  0.47692721  0.22776511  0.46627590    -1.91900
Cd119      Cd  0.43997301  0.20644308  0.42738330     1.59900
O120        O  0.47139210  0.29968693  0.48392902    -0.81400
O121        O  0.46289225  0.16896708  0.40063916    -0.80000
C122        C  0.07023305  0.25468415  0.42533079     0.82500
C123        C  0.02178647  0.20115079  0.07402472     0.81800
O124        O  0.01892914  0.16712943  0.43465058    -0.79000
C125        C  0.38126032  0.20109346  0.00478018     0.83000
O126        O  0.06679301  0.22859364  0.43935414    -0.79100
C127        C  0.45904176  0.29962842  0.02522794     0.83100
C128        C  0.42935283  0.25710663  0.35947385     0.83400
O129        O  0.45452204  0.27259163  0.37878052    -0.81500
C130        C  0.00073360  0.07747595  0.38424463     0.79700
N131        N  0.00976775  0.07789872  0.33860636    -0.78600
C132        C  0.01424173  0.10352002  0.31599940     0.82200
N133        N  0.00953830  0.12882272  0.33926906    -0.78500
C134        C  0.00103049  0.12866299  0.38493414     0.82200
N135        N  0.99634412  0.10298742  0.40738054    -0.80300
C136        C  0.02327868  0.10395318  0.26639913     0.79700
N137        N  0.02764611  0.12966490  0.24394029    -0.78600
C138        C  0.03559989  0.13007802  0.19806016     0.82200
N139        N  0.04034180  0.10478044  0.17495618    -0.78500
C140        C  0.03680907  0.07909366  0.19728284     0.82200
N141        N  0.02872697  0.07869394  0.24312129    -0.80300
C142        C  0.04180081  0.01781094  0.11517955     0.79700
N143        N  0.07440579  0.50504446  0.12878079    -0.78600
C144        C  0.09450156  0.01641633  0.16422829     0.82200
N145        N  0.08156910  0.04015700  0.18671224    -0.78500
C146        C  0.04871212  0.05257538  0.17409160     0.82200
N147        N  0.02926868  0.04187567  0.13753728    -0.80300
C148        C  0.40969356  0.43931673  0.31907570     0.79700
N149        N  0.37546164  0.45018202  0.30743016    -0.78600
C150        C  0.35708979  0.43967340  0.26978836     0.82200
N151        N  0.37271038  0.41792069  0.24481885    -0.78500
C152        C  0.40620815  0.40649295  0.25706584     0.82200
N153        N  0.42464757  0.41708482  0.29439489    -0.80300
O154        O  0.43412568  0.41683428  0.49923430    -0.79000
C155        C  0.38178697  0.00394920  0.00575896     0.82000
O156        O  0.46150154  0.46199503  0.35511589    -0.80100
O157        O  0.48204321  0.04950210  0.44915781    -0.81600
O158        O  0.03132219  0.48185545  0.05891970    -0.81400
O159        O  0.49069243  0.41894664  0.03180730    -0.80000
Zn160      Zn  0.42871547  0.45517203  0.46508064     1.55700
O161        O  0.99641646  0.02196300  0.05543980    -0.81400
Cd162      Cd  0.01288973  0.45655451  0.00497280     1.59700
Cd163      Cd  0.49675856  0.48227276  0.40263265     1.59600
O164        O  0.05937165  0.44525016  0.46707037    -0.81400
O165        O  0.47540900  0.47749041  0.46642627    -1.91900
Cd166      Cd  0.46612565  0.01659992  0.49432110     1.59900
O167        O  0.05063438  0.46471345  0.39736970    -0.81400
O168        O  0.40929666  0.02159777  0.00673975    -0.80000
C169        C  0.42940602  0.45013809  0.35990747     0.82500
C170        C  0.45966666  0.40611331  0.02483285     0.82200
O171        O  0.38552593  0.47759770  0.49335081    -0.79000
C172        C  0.02180561  0.00657471  0.07456894     0.83000
O173        O  0.41392798  0.44696992  0.39919433    -0.79100
C174        C  0.07050736  0.45044996  0.42613622     0.83100
C175        C  0.49420407  0.04951548  0.40772352     0.83400
O176        O  0.00041748  0.02604156  0.38561095    -0.81500
C177        C  0.43113098  0.35368423  0.16673522     0.79700
N178        N  0.42660540  0.37934419  0.18921474    -0.78600
C179        C  0.41830447  0.37966201  0.23495026     0.82200
N180        N  0.41339188  0.35428897  0.25786375    -0.78500
C181        C  0.41705055  0.32863852  0.23543309     0.82200
N182        N  0.42544232  0.32835778  0.18972871    -0.80300
C183        C  0.45312060  0.32747728  0.04891069     0.79700
N184        N  0.44438492  0.32780456  0.09458407    -0.78600
C185        C  0.44019593  0.35337486  0.11730145     0.82200
N186        N  0.44482121  0.37871384  0.09414312    -0.78500
C187        C  0.45304780  0.37859563  0.04843487     0.82200
N188        N  0.45746663  0.35298754  0.02582692    -0.80300
C189        C  0.16082516  0.26583672  0.86491962     0.79700
N190        N  0.17450511  0.28915243  0.88825626    -0.78600
C191        C  0.15493605  0.30047759  0.92418815     0.82200
N192        N  0.12132881  0.28894930  0.93595574    -0.78500
C193        C  0.10741830  0.26574805  0.91284088     0.82200
N194        N  0.12708825  0.25426532  0.87702375    -0.80300
C195        C  0.29273128  0.18794022  0.56869646     0.79700
N196        N  0.27891139  0.16478405  0.54514918    -0.78600
C197        C  0.29697198  0.15492046  0.50706723     0.82200
N198        N  0.32955472  0.16739022  0.99370651    -0.78500
C199        C  0.34433930  0.18977157  0.51800951     0.82200
N200        N  0.32574749  0.20018987  0.55540846    -0.80300
O201        O  0.18328210  0.28893518  0.68464435    -0.79000
C202        C  0.13223892  0.20205419  0.67507453     0.82000
O203        O  0.21295071  0.24390949  0.82804063    -0.80100
O204        O  0.23028350  0.15609052  0.73347445    -0.81600
O205        O  0.28158597  0.22422764  0.62410871    -0.81400
O206        O  0.23888588  0.28676447  0.64973456    -0.80000
Zn207      Zn  0.17871016  0.25037319  0.71841184     1.55700
O208        O  0.24764255  0.18363309  0.62834365    -0.81400
Cd209      Cd  0.26222628  0.24964885  0.67730275     1.59700
Cd210      Cd  0.24727328  0.22330895  0.77967609     1.59600
O211        O  0.30872168  0.26146622  0.71479059    -0.81400
O212        O  0.22540719  0.22827495  0.71622985    -1.91900
Cd213      Cd  0.21618574  0.18919585  0.68810495     1.59900
O214        O  0.30166379  0.24022606  0.78350020    -0.81400
O215        O  0.15976941  0.18449297  0.67328533    -0.80000
C216        C  0.18047810  0.25520818  0.82383242     0.82500
C217        C  0.20798418  0.29956125  0.65773606     0.82200
O218        O  0.13578901  0.22803213  0.68941096    -0.79000
C219        C  0.27279996  0.19917971  0.60915735     0.83000
O220        O  0.16441190  0.25798632  0.78478380    -0.79100
C221        C  0.32079606  0.25531257  0.75497792     0.83100
C222        C  0.24234245  0.15604482  0.77491146     0.83400
O223        O  0.24955107  0.17948399  0.79669553    -0.81500
C224        C  0.18065849  0.35258132  0.51541772     0.79700
N225        N  0.17588023  0.37813036  0.99268116    -0.78600
C226        C  0.16772368  0.37827247  0.94688830     0.82200
N227        N  0.16314647  0.35278093  0.92414780    -0.78500
C228        C  0.16713712  0.32719986  0.94677564     0.82200
N229        N  0.17539238  0.32713600  0.99255765    -0.80300
C230        C  0.20006661  0.37812571  0.63420191     0.79700
N231        N  0.19287908  0.37800059  0.58818716    -0.78600
C232        C  0.18911805  0.35253160  0.56509972     0.82200
N233        N  0.19347688  0.32708980  0.58816254    -0.78500
C234        C  0.20065803  0.32706371  0.63422393     0.82200
N235        N  0.20404555  0.35262439  0.65728450    -0.80300
C236        C  0.15943094  0.43795981  0.86248081     0.79700
N237        N  0.17413465  0.41551214  0.88695535    -0.78600
C238        C  0.15571475  0.40508203  0.92445393     0.82200
N239        N  0.12256702  0.41696711  0.93712011    -0.78500
C240        C  0.10723938  0.43892258  0.91228527     0.82200
N241        N  0.12554949  0.44921983  0.87451572    -0.80300
C242        C  0.29173705  0.01600888  0.56647744     0.79700
N243        N  0.27893082  0.03991395  0.54396702    -0.78600
C244        C  0.29819915  0.05066903  0.50739733     0.82200
N245        N  0.33125276  0.03856763  0.99493774    -0.78500
C246        C  0.34452842  0.01498296  0.51754759     0.82200
N247        N  0.32454316  0.50346501  0.55303522    -0.80300
O248        O  0.13449141  0.47863504  0.68941800    -0.79000
C249        C  0.20719581  0.40571061  0.65745121     0.82000
O250        O  0.21133480  0.46048774  0.82649154    -0.80100
O251        O  0.30841238  0.44461006  0.71562221    -0.81600
O252        O  0.24695871  0.02087121  0.62656114    -0.81400
O253        O  0.15951900  0.02193856  0.67408534    -0.80000
Zn254      Zn  0.17735928  0.45537532  0.71676541     1.55700
O255        O  0.28058807  0.48010331  0.62275127    -0.81400
Cd256      Cd  0.21603747  0.01615983  0.68724676     1.59700
Cd257      Cd  0.24577306  0.48177421  0.77927579     1.59600
O258        O  0.23110317  0.04908220  0.73269870    -0.81400
O259        O  0.22455405  0.47702061  0.71541104    -1.91900
Cd260      Cd  0.26180828  0.45544867  0.67735812     1.59900
O261        O  0.24765395  0.02548405  0.79689923    -0.81400
O262        O  0.23892112  0.41772744  0.65146244    -0.80000
C263        C  0.17905549  0.44894883  0.82173124     0.82500
C264        C  0.13147355  0.00487255  0.67611877     0.82200
O265        O  0.18155517  0.41720018  0.68199095    -0.79000
C266        C  0.27175454  0.00501438  0.60722908     0.83000
O267        O  0.16307481  0.44659873  0.78259920    -0.79100
C268        C  0.24184009  0.04900004  0.77471748     0.83100
C269        C  0.31998684  0.45066073  0.75610535     0.83400
O270        O  0.30026015  0.46531632  0.78450036    -0.81500
C271        C  0.24781270  0.12812683  0.79875266     0.79700
N272        N  0.25747807  0.12791426  0.84410479    -0.78600
C273        C  0.26211297  0.10245424  0.86694595     0.82200
N274        N  0.25714597  0.07699659  0.84413561    -0.78500
C275        C  0.24750030  0.07686694  0.79873062     0.82200
N276        N  0.24268980  0.10251898  0.77611504    -0.80300
C277        C  0.27192310  0.10252309  0.91622170     0.79700
N278        N  0.27670419  0.12807831  0.93891145    -0.78600
C279        C  0.28523539  0.12818837  0.98459507     0.82200
N280        N  0.29007168  0.10277861  0.50729492    -0.78500
C281        C  0.28619176  0.07725322  0.98467243     0.82200
N282        N  0.27755211  0.07710891  0.93900143    -0.80300
C283        C  0.04150110  0.19084755  0.61527004     0.79700
N284        N  0.02763730  0.16793138  0.63943890    -0.78600
C285        C  0.04714455  0.15700673  0.67575444     0.82200
N286        N  0.08088556  0.16843815  0.68696330    -0.78500
C287        C  0.09497862  0.19119339  0.66300159     0.82200
N288        N  0.07538955  0.20234574  0.62685590    -0.80300
C289        C  0.40923500  0.26860200  0.81927374     0.79700
N290        N  0.42289033  0.29198440  0.79613380    -0.78600
C291        C  0.40471613  0.30211371  0.75829285     0.82200
N292        N  0.37221774  0.28955788  0.74463533    -0.78500
C293        C  0.35758301  0.26691328  0.76854374     0.82200
N294        N  0.37628990  0.25631181  0.80576151    -0.80300
O295        O  0.03795172  0.19845168  0.53500578    -0.79000
C296        C  0.49387495  0.15623213  0.90842886     0.82000
O297        O  0.04256801  0.27212924  0.92380030    -0.80100
O298        O  0.42069906  0.23194837  0.87411675    -0.81600
O299        O  0.40054844  0.21581672  0.53356584    -0.81400
O300        O  0.48916654  0.21217449  0.57813266    -0.80000
Zn301      Zn  0.02379338  0.20588733  0.96837597     1.55700
O302        O  0.39330273  0.19503856  0.96458008    -0.81400
Cd303      Cd  0.45487515  0.23255449  0.52970243     1.59700
Cd304      Cd  0.48613851  0.26691316  0.93841220     1.59600
O305        O  0.45204598  0.27617384  0.54699046    -0.81400
O306        O  0.47692719  0.22776513  0.96627582    -1.91900
Cd307      Cd  0.43997290  0.20644322  0.92738341     1.59900
O308        O  0.47139199  0.29968689  0.98392900    -0.81400
O309        O  0.46289202  0.16896711  0.90063928    -0.80000
C310        C  0.07023297  0.25468412  0.92533077     0.82500
C311        C  0.02178642  0.20115074  0.57402471     0.81800
O312        O  0.01892909  0.16712942  0.93465053    -0.79000
C313        C  0.38126045  0.20109348  0.50478016     0.83000
O314        O  0.06679292  0.22859359  0.93935402    -0.79100
C315        C  0.45904184  0.29962841  0.52522801     0.83100
C316        C  0.42935272  0.25710664  0.85947389     0.83400
O317        O  0.45452196  0.27259166  0.87878054    -0.81500
C318        C  0.00073348  0.07747595  0.88424478     0.79700
N319        N  0.00976770  0.07789879  0.83860625    -0.78600
C320        C  0.01424161  0.10351997  0.81599943     0.82200
N321        N  0.00953819  0.12882280  0.83926897    -0.78500
C322        C  0.00103037  0.12866297  0.88493417     0.82200
N323        N  0.99634403  0.10298746  0.90738044    -0.80300
C324        C  0.02327863  0.10395322  0.76639904     0.79700
N325        N  0.02764604  0.12966489  0.74394020    -0.78600
C326        C  0.03560002  0.13007800  0.69806016     0.82200
N327        N  0.04034201  0.10478042  0.67495619    -0.78500
C328        C  0.03680915  0.07909367  0.69728283     0.82200
N329        N  0.02872707  0.07869392  0.74312131    -0.80300
C330        C  0.04180084  0.01781087  0.61517954     0.79700
N331        N  0.07440582  0.50504439  0.62878094    -0.78600
C332        C  0.09450162  0.01641633  0.66422826     0.82200
N333        N  0.08156913  0.04015706  0.68671228    -0.78500
C334        C  0.04871213  0.05257534  0.67409156     0.82200
N335        N  0.02926866  0.04187564  0.63753738    -0.80300
C336        C  0.40969368  0.43931677  0.81907581     0.79700
N337        N  0.37546162  0.45018195  0.80743005    -0.78600
C338        C  0.35708987  0.43967348  0.76978853     0.82200
N339        N  0.37271047  0.41792073  0.74481860    -0.78500
C340        C  0.40620833  0.40649300  0.75706590     0.82200
N341        N  0.42464757  0.41708477  0.79439478    -0.80300
O342        O  0.43412583  0.41683431  0.99923437    -0.79000
C343        C  0.38178702  0.00394923  0.50575896     0.82000
O344        O  0.46150162  0.46199497  0.85511599    -0.80100
O345        O  0.48204329  0.04950208  0.94915795    -0.81600
O346        O  0.03132214  0.48185543  0.55891976    -0.81400
O347        O  0.49069229  0.41894670  0.53180718    -0.80000
Zn348      Zn  0.42871560  0.45517200  0.96508051     1.55700
O349        O  0.99641654  0.02196299  0.55543977    -0.81400
Cd350      Cd  0.01288965  0.45655450  0.50497288     1.59700
Cd351      Cd  0.49675849  0.48227273  0.90263279     1.59600
O352        O  0.05937166  0.44525016  0.96707037    -0.81400
O353        O  0.47540896  0.47749046  0.96642638    -1.91900
Cd354      Cd  0.46612557  0.01659990  0.99432122     1.59900
O355        O  0.05063440  0.46471339  0.89736967    -0.81400
O356        O  0.40929673  0.02159787  0.50673959    -0.80000
C357        C  0.42940607  0.45013804  0.85990739     0.82500
C358        C  0.45966655  0.40611334  0.52483276     0.82200
O359        O  0.38552593  0.47759772  0.99335061    -0.79000
C360        C  0.02180563  0.00657470  0.57456899     0.83000
O361        O  0.41392801  0.44696990  0.89919433    -0.79100
C362        C  0.07050740  0.45044990  0.92613630     0.83100
C363        C  0.49420409  0.04951545  0.90772342     0.83400
O364        O  0.00041738  0.02604154  0.88561105    -0.81500
C365        C  0.43113101  0.35368424  0.66673517     0.79700
N366        N  0.42660546  0.37934416  0.68921478    -0.78600
C367        C  0.41830461  0.37966203  0.73495014     0.82200
N368        N  0.41339201  0.35428897  0.75786382    -0.78500
C369        C  0.41705063  0.32863851  0.73543305     0.82200
N370        N  0.42544239  0.32835773  0.68972880    -0.80300
C371        C  0.45312075  0.32747727  0.54891077     0.79700
N372        N  0.44438488  0.32780457  0.59458413    -0.78600
C373        C  0.44019591  0.35337480  0.61730153     0.82200
N374        N  0.44482130  0.37871388  0.59414316    -0.78500
C375        C  0.45304782  0.37859563  0.54843496     0.82200
N376        N  0.45746677  0.35298754  0.52582705    -0.80300
C377        C  0.16082514  0.76583680  0.36491950     0.79700
N378        N  0.17450508  0.78915251  0.38825617    -0.78600
C379        C  0.15493611  0.80047767  0.42418806     0.82200
N380        N  0.12132886  0.78894930  0.43595582    -0.78500
C381        C  0.10741839  0.76574807  0.41284094     0.82200
N382        N  0.12708822  0.75426538  0.37702373    -0.80300
C383        C  0.29273125  0.68794016  0.06869655     0.79700
N384        N  0.27891121  0.66478401  0.04514934    -0.78600
C385        C  0.29697190  0.65492043  0.00706721     0.82200
N386        N  0.32955483  0.66739020  0.49370646    -0.78500
C387        C  0.34433916  0.68977157  0.01800943     0.82200
N388        N  0.32574731  0.70018983  0.05540856    -0.80300
O389        O  0.18328214  0.78893506  0.18464444    -0.79000
C390        C  0.13223884  0.70205420  0.17507453     0.82000
O391        O  0.21295074  0.74390954  0.32804069    -0.80100
O392        O  0.23028331  0.65609052  0.23347454    -0.81600
O393        O  0.28158597  0.72422760  0.12410885    -0.81400
O394        O  0.23888587  0.78676439  0.14973456    -0.80000
Zn395      Zn  0.17871012  0.75037304  0.21841172     1.55700
O396        O  0.24764253  0.68363308  0.12834379    -0.81400
Cd397      Cd  0.26222627  0.74964873  0.17730289     1.59700
Cd398      Cd  0.24727325  0.72330898  0.27967601     1.59600
O399        O  0.30872170  0.76146603  0.21479057    -0.81400
O400        O  0.22540716  0.72827493  0.21622977    -1.91900
Cd401      Cd  0.21618571  0.68919589  0.18810487     1.59900
O402        O  0.30166377  0.74022609  0.28350032    -0.81400
O403        O  0.15976935  0.68449303  0.17328544    -0.80000
C404        C  0.18047811  0.75520817  0.32383243     0.82500
C405        C  0.20798418  0.79956120  0.15773608     0.82200
O406        O  0.13578884  0.72803217  0.18941080    -0.79000
C407        C  0.27279989  0.69917962  0.10915754     0.83000
O408        O  0.16441192  0.75798617  0.28478374    -0.79100
C409        C  0.32079610  0.75531246  0.25497805     0.83100
C410        C  0.24234230  0.65604478  0.27491149     0.83400
O411        O  0.24955089  0.67948397  0.29669562    -0.81500
C412        C  0.18065833  0.85258140  0.01541768     0.79700
N413        N  0.17588023  0.87813039  0.49268122    -0.78600
C414        C  0.16772372  0.87827254  0.44688839     0.82200
N415        N  0.16314660  0.85278099  0.42414781    -0.78500
C416        C  0.16713723  0.82719990  0.44677559     0.82200
N417        N  0.17539256  0.82713603  0.49255758    -0.80300
C418        C  0.20006652  0.87812565  0.13420203     0.79700
N419        N  0.19287885  0.87800064  0.08818721    -0.78600
C420        C  0.18911797  0.85253153  0.06509983     0.82200
N421        N  0.19347687  0.82708985  0.08816248    -0.78500
C422        C  0.20065799  0.82706364  0.13422403     0.82200
N423        N  0.20404555  0.85262439  0.15728448    -0.80300
C424        C  0.15943096  0.93795969  0.36248084     0.79700
N425        N  0.17413464  0.91551216  0.38695529    -0.78600
C426        C  0.15571478  0.90508203  0.42445410     0.82200
N427        N  0.12256702  0.91696719  0.43712012    -0.78500
C428        C  0.10723936  0.93892247  0.41228534     0.82200
N429        N  0.12554946  0.94921982  0.37451558    -0.80300
C430        C  0.29173703  0.51600882  0.06647756     0.79700
N431        N  0.27893075  0.53991395  0.04396691    -0.78600
C432        C  0.29819906  0.55066893  0.00739740     0.82200
N433        N  0.33125280  0.53856767  0.49493778    -0.78500
C434        C  0.34452837  0.51498289  0.01754773     0.82200
N435        N  0.32454311  0.00346499  0.05303522    -0.80300
O436        O  0.13449136  0.97863510  0.18941810    -0.79000
C437        C  0.20719578  0.90571058  0.15745128     0.82000
O438        O  0.21133479  0.96048775  0.32649143    -0.80100
O439        O  0.30841237  0.94460998  0.21562218    -0.81600
O440        O  0.24695870  0.52087116  0.12656118    -0.81400
O441        O  0.15951903  0.52193852  0.17408513    -0.80000
Zn442      Zn  0.17735927  0.95537536  0.21676529     1.55700
O443        O  0.28058798  0.98010318  0.12275111    -0.81400
Cd444      Cd  0.21603748  0.51615984  0.18724666     1.59700
Cd445      Cd  0.24577306  0.98177424  0.27927567     1.59600
O446        O  0.23110340  0.54908219  0.23269866    -0.81400
O447        O  0.22455406  0.97702055  0.21541088    -1.91900
Cd448      Cd  0.26180828  0.95544852  0.17735800     1.59900
O449        O  0.24765388  0.52548401  0.29689929    -0.81400
O450        O  0.23892116  0.91772729  0.15146261    -0.80000
C451        C  0.17905546  0.94894879  0.32173105     0.82500
C452        C  0.13147359  0.50487252  0.17611868     0.82200
O453        O  0.18155511  0.91720024  0.18199084    -0.79000
C454        C  0.27175450  0.50501438  0.10722904     0.83000
O455        O  0.16307480  0.94659872  0.28259911    -0.79100
C456        C  0.24184011  0.54900009  0.27471732     0.83100
C457        C  0.31998687  0.95066072  0.25610559     0.83400
O458        O  0.30026010  0.96531619  0.28450039    -0.81500
C459        C  0.24781269  0.62812674  0.29875274     0.79700
N460        N  0.25747803  0.62791420  0.34410477    -0.78600
C461        C  0.26211296  0.60245411  0.36694605     0.82200
N462        N  0.25714596  0.57699653  0.34413559    -0.78500
C463        C  0.24750033  0.57686680  0.29873082     0.82200
N464        N  0.24268976  0.60251895  0.27611503    -0.80300
C465        C  0.27192309  0.60252309  0.41622167     0.79700
N466        N  0.27670420  0.62807831  0.43891141    -0.78600
C467        C  0.28523543  0.62818837  0.48459501     0.82200
N468        N  0.29007164  0.60277856  0.00729495    -0.78500
C469        C  0.28619173  0.57725319  0.48467247     0.82200
N470        N  0.27755207  0.57710891  0.43900148    -0.80300
C471        C  0.04150093  0.69084747  0.11527017     0.79700
N472        N  0.02763726  0.66793139  0.13943879    -0.78600
C473        C  0.04714441  0.65700671  0.17575459     0.82200
N474        N  0.08088541  0.66843822  0.18696341    -0.78500
C475        C  0.09497850  0.69119334  0.16300164     0.82200
N476        N  0.07538950  0.70234577  0.12685594    -0.80300
C477        C  0.40923486  0.76860203  0.31927377     0.79700
N478        N  0.42289028  0.79198448  0.29613388    -0.78600
C479        C  0.40471595  0.80211371  0.25829277     0.82200
N480        N  0.37221776  0.78955784  0.24463531    -0.78500
C481        C  0.35758296  0.76691321  0.26854364     0.82200
N482        N  0.37628991  0.75631184  0.30576161    -0.80300
O483        O  0.03795163  0.69845175  0.03500591    -0.79000
C484        C  0.49387512  0.65623210  0.40842883     0.82000
O485        O  0.04256802  0.77212927  0.42380017    -0.80100
O486        O  0.42069910  0.73194830  0.37411661    -0.81600
O487        O  0.40054826  0.71581677  0.03356576    -0.81400
O488        O  0.48916646  0.71217455  0.07813273    -0.80000
Zn489      Zn  0.02379338  0.70588735  0.46837588     1.55700
O490        O  0.39330291  0.69503855  0.46458016    -0.81400
Cd491      Cd  0.45487513  0.73255452  0.02970231     1.59700
Cd492      Cd  0.48613873  0.76691321  0.43841233     1.59600
O493        O  0.45204599  0.77617378  0.04699056    -0.81400
O494        O  0.47692728  0.72776513  0.46627586    -1.91900
Cd495      Cd  0.43997295  0.70644310  0.42738330     1.59900
O496        O  0.47139203  0.79968696  0.48392897    -0.81400
O497        O  0.46289228  0.66896713  0.40063911    -0.80000
C498        C  0.07023298  0.75468415  0.42533078     0.82500
C499        C  0.02178640  0.70115078  0.07402470     0.81800
O500        O  0.01892909  0.66712934  0.43465064    -0.79000
C501        C  0.38126027  0.70109348  0.00478020     0.83000
O502        O  0.06679293  0.72859366  0.43935412    -0.79100
C503        C  0.45904183  0.79962842  0.02522786     0.83100
C504        C  0.42935278  0.75710667  0.35947388     0.83400
O505        O  0.45452198  0.77259163  0.37878055    -0.81500
C506        C  0.00073361  0.57747597  0.38424463     0.79700
N507        N  0.00976768  0.57789868  0.33860639    -0.78600
C508        C  0.01424170  0.60352009  0.31599939     0.82200
N509        N  0.00953839  0.62882268  0.33926905    -0.78500
C510        C  0.00103046  0.62866300  0.38493409     0.82200
N511        N  0.99634406  0.60298742  0.40738054    -0.80300
C512        C  0.02327865  0.60395306  0.26639911     0.79700
N513        N  0.02764605  0.62966493  0.24394029    -0.78600
C514        C  0.03559988  0.63007799  0.19806017     0.82200
N515        N  0.04034178  0.60478047  0.17495618    -0.78500
C516        C  0.03680914  0.57909363  0.19728282     0.82200
N517        N  0.02872708  0.57869397  0.24312134    -0.80300
C518        C  0.04180082  0.51781092  0.11517957     0.79700
N519        N  0.07440572  0.00504442  0.12878082    -0.78600
C520        C  0.09450164  0.51641635  0.16422823     0.82200
N521        N  0.08156912  0.54015699  0.18671226    -0.78500
C522        C  0.04871213  0.55257538  0.17409161     0.82200
N523        N  0.02926866  0.54187565  0.13753731    -0.80300
C524        C  0.40969360  0.93931678  0.31907565     0.79700
N525        N  0.37546176  0.95018205  0.30743015    -0.78600
C526        C  0.35708977  0.93967343  0.26978833     0.82200
N527        N  0.37271048  0.91792069  0.24481885    -0.78500
C528        C  0.40620814  0.90649296  0.25706580     0.82200
N529        N  0.42464763  0.91708480  0.29439493    -0.80300
O530        O  0.43412580  0.91683432  0.49923429    -0.79000
C531        C  0.38178702  0.50394922  0.00575896     0.82000
O532        O  0.46150162  0.96199501  0.35511591    -0.80100
O533        O  0.48204332  0.54950206  0.44915786    -0.81600
O534        O  0.03132213  0.98185546  0.05891968    -0.81400
O535        O  0.49069236  0.91894667  0.03180729    -0.80000
Zn536      Zn  0.42871559  0.95517205  0.46508064     1.55700
O537        O  0.99641657  0.52196301  0.05543978    -0.81400
Cd538      Cd  0.01288965  0.95655453  0.00497279     1.59700
Cd539      Cd  0.49675847  0.98227278  0.40263266     1.59600
O540        O  0.05937160  0.94525017  0.46707039    -0.81400
O541        O  0.47540902  0.97749047  0.46642632    -1.91900
Cd542      Cd  0.46612558  0.51659977  0.49432109     1.59900
O543        O  0.05063441  0.96471344  0.39736970    -0.81400
O544        O  0.40929669  0.52159779  0.00673977    -0.80000
C545        C  0.42940611  0.95013810  0.35990746     0.82500
C546        C  0.45966660  0.90611333  0.02483285     0.82200
O547        O  0.38552598  0.97759775  0.49335082    -0.79000
C548        C  0.02180565  0.50657472  0.07456896     0.83000
O549        O  0.41392802  0.94696996  0.39919430    -0.79100
C550        C  0.07050735  0.95044996  0.42613618     0.83100
C551        C  0.49420422  0.54951546  0.40772352     0.83400
O552        O  0.00041737  0.52604156  0.38561095    -0.81500
C553        C  0.43113101  0.85368422  0.16673522     0.79700
N554        N  0.42660551  0.87934416  0.18921474    -0.78600
C555        C  0.41830455  0.87966201  0.23495027     0.82200
N556        N  0.41339180  0.85428896  0.25786370    -0.78500
C557        C  0.41705050  0.82863854  0.23543309     0.82200
N558        N  0.42544238  0.82835772  0.18972874    -0.80300
C559        C  0.45312069  0.82747718  0.04891082     0.79700
N560        N  0.44438487  0.82780452  0.09458402    -0.78600
C561        C  0.44019590  0.85337478  0.11730146     0.82200
N562        N  0.44482127  0.87871381  0.09414313    -0.78500
C563        C  0.45304780  0.87859558  0.04843489     0.82200
N564        N  0.45746676  0.85298753  0.02582693    -0.80300
C565        C  0.16082513  0.76583676  0.86491960     0.79700
N566        N  0.17450500  0.78915243  0.88825623    -0.78600
C567        C  0.15493604  0.80047762  0.92418816     0.82200
N568        N  0.12132874  0.78894921  0.93595582    -0.78500
C569        C  0.10741831  0.76574805  0.91284092     0.82200
N570        N  0.12708815  0.75426530  0.87702372    -0.80300
C571        C  0.29273128  0.68794021  0.56869646     0.79700
N572        N  0.27891135  0.66478404  0.54514922    -0.78600
C573        C  0.29697196  0.65492043  0.50706723     0.82200
N574        N  0.32955465  0.66739023  0.99370651    -0.78500
C575        C  0.34433927  0.68977157  0.51800945     0.82200
N576        N  0.32574745  0.70018987  0.55540843    -0.80300
O577        O  0.18328209  0.78893519  0.68464433    -0.79000
C578        C  0.13223895  0.70205421  0.67507456     0.82000
O579        O  0.21295068  0.74390950  0.82804053    -0.80100
O580        O  0.23028346  0.65609052  0.73347449    -0.81600
O581        O  0.28158593  0.72422766  0.62410871    -0.81400
O582        O  0.23888585  0.78676443  0.64973457    -0.80000
Zn583      Zn  0.17871025  0.75037320  0.71841184     1.55700
O584        O  0.24764255  0.68363310  0.62834363    -0.81400
Cd585      Cd  0.26222622  0.74964887  0.67730276     1.59700
Cd586      Cd  0.24727342  0.72330897  0.77967584     1.59600
O587        O  0.30872178  0.76146623  0.71479056    -0.81400
O588        O  0.22540720  0.72827497  0.71622979    -1.91900
Cd589      Cd  0.21618588  0.68919587  0.68810494     1.59900
O590        O  0.30166394  0.74022607  0.78350016    -0.81400
O591        O  0.15976951  0.68449301  0.67328533    -0.80000
C592        C  0.18047804  0.75520818  0.82383237     0.82500
C593        C  0.20798425  0.79956123  0.65773604     0.82200
O594        O  0.13578900  0.72803214  0.68941098    -0.79000
C595        C  0.27279997  0.69917972  0.60915735     0.83000
O596        O  0.16441184  0.75798634  0.78478377    -0.79100
C597        C  0.32079617  0.75531258  0.75497786     0.83100
C598        C  0.24234242  0.65604482  0.77491147     0.83400
O599        O  0.24955102  0.67948401  0.79669551    -0.81500
C600        C  0.18065848  0.85258134  0.51541770     0.79700
N601        N  0.17588016  0.87813037  0.99268120    -0.78600
C602        C  0.16772376  0.87827250  0.94688830     0.82200
N603        N  0.16314658  0.85278095  0.92414779    -0.78500
C604        C  0.16713710  0.82719986  0.94677562     0.82200
N605        N  0.17539243  0.82713602  0.99255765    -0.80300
C606        C  0.20006656  0.87812573  0.63420192     0.79700
N607        N  0.19287900  0.87800059  0.58818718    -0.78600
C608        C  0.18911814  0.85253159  0.56509973     0.82200
N609        N  0.19347705  0.82708980  0.58816251    -0.78500
C610        C  0.20065817  0.82706374  0.63422393     0.82200
N611        N  0.20404567  0.85262439  0.65728448    -0.80300
C612        C  0.15943092  0.93795974  0.86248078     0.79700
N613        N  0.17413465  0.91551212  0.88695532    -0.78600
C614        C  0.15571481  0.90508201  0.92445396     0.82200
N615        N  0.12256701  0.91696711  0.93712008    -0.78500
C616        C  0.10723942  0.93892254  0.91228532     0.82200
N617        N  0.12554953  0.94921985  0.87451570    -0.80300
C618        C  0.29173701  0.51600892  0.56647745     0.79700
N619        N  0.27893081  0.53991391  0.54396697    -0.78600
C620        C  0.29819909  0.55066904  0.50739731     0.82200
N621        N  0.33125271  0.53856764  0.99493772    -0.78500
C622        C  0.34452842  0.51498299  0.51754763     0.82200
N623        N  0.32454311  0.00346497  0.55303518    -0.80300
O624        O  0.13449135  0.97863506  0.68941802    -0.79000
C625        C  0.20719572  0.90571062  0.65745122     0.82000
O626        O  0.21133479  0.96048777  0.82649162    -0.80100
O627        O  0.30841245  0.94461010  0.71562214    -0.81600
O628        O  0.24695855  0.52087114  0.62656107    -0.81400
O629        O  0.15951892  0.52193858  0.67408535    -0.80000
Zn630      Zn  0.17735920  0.95537534  0.71676540     1.55700
O631        O  0.28058794  0.98010326  0.62275120    -0.81400
Cd632      Cd  0.21603739  0.51615984  0.68724677     1.59700
Cd633      Cd  0.24577300  0.98177422  0.77927580     1.59600
O634        O  0.23110333  0.54908221  0.73269862    -0.81400
O635        O  0.22455398  0.97702061  0.71541104    -1.91900
Cd636      Cd  0.26180820  0.95544868  0.67735813     1.59900
O637        O  0.24765389  0.52548406  0.79689924    -0.81400
O638        O  0.23892102  0.91772746  0.65146245    -0.80000
C639        C  0.17905555  0.94894882  0.82173123     0.82500
C640        C  0.13147355  0.50487250  0.67611875     0.82200
O641        O  0.18155507  0.91720019  0.68199094    -0.79000
C642        C  0.27175454  0.50501436  0.60722907     0.83000
O643        O  0.16307490  0.94659871  0.78259917    -0.79100
C644        C  0.24184015  0.54900004  0.77471748     0.83100
C645        C  0.31998686  0.95066072  0.75610532     0.83400
O646        O  0.30026015  0.96531621  0.78450039    -0.81500
C647        C  0.24781282  0.62812682  0.79875265     0.79700
N648        N  0.25747818  0.62791423  0.84410476    -0.78600
C649        C  0.26211293  0.60245414  0.86694596     0.82200
N650        N  0.25714586  0.57699656  0.84413567    -0.78500
C651        C  0.24750030  0.57686692  0.79873057     0.82200
N652        N  0.24268992  0.60251897  0.77611502    -0.80300
C653        C  0.27192307  0.60252312  0.91622171     0.79700
N654        N  0.27670408  0.62807829  0.93891147    -0.78600
C655        C  0.28523537  0.62818837  0.98459507     0.82200
N656        N  0.29007163  0.60277860  0.50729492    -0.78500
C657        C  0.28619176  0.57725324  0.98467241     0.82200
N658        N  0.27755218  0.57710889  0.93900146    -0.80300
C659        C  0.04150106  0.69084754  0.61527005     0.79700
N660        N  0.02763738  0.66793140  0.63943883    -0.78600
C661        C  0.04714452  0.65700668  0.67575441     0.82200
N662        N  0.08088559  0.66843816  0.68696332    -0.78500
C663        C  0.09497865  0.69119333  0.66300160     0.82200
N664        N  0.07538966  0.70234575  0.62685590    -0.80300
C665        C  0.40923508  0.76860206  0.81927376     0.79700
N666        N  0.42289032  0.79198442  0.79613385    -0.78600
C667        C  0.40471618  0.80211374  0.75829288     0.82200
N668        N  0.37221782  0.78955788  0.74463527    -0.78500
C669        C  0.35758313  0.76691329  0.76854374     0.82200
N670        N  0.37628988  0.75631182  0.80576148    -0.80300
O671        O  0.03795180  0.69845172  0.53500581    -0.79000
C672        C  0.49387501  0.65623211  0.90842884     0.82000
O673        O  0.04256795  0.77212926  0.92380030    -0.80100
O674        O  0.42069898  0.73194840  0.87411676    -0.81600
O675        O  0.40054843  0.71581673  0.53356584    -0.81400
O676        O  0.48916647  0.71217450  0.57813270    -0.80000
Zn677      Zn  0.02379329  0.70588733  0.96837597     1.55700
O678        O  0.39330277  0.69503855  0.96458013    -0.81400
Cd679      Cd  0.45487528  0.73255451  0.52970242     1.59700
Cd680      Cd  0.48613864  0.76691318  0.93841219     1.59600
O681        O  0.45204612  0.77617385  0.54699050    -0.81400
O682        O  0.47692722  0.72776515  0.96627581    -1.91900
Cd683      Cd  0.43997285  0.70644324  0.92738341     1.59900
O684        O  0.47139198  0.79968685  0.98392902    -0.81400
O685        O  0.46289215  0.66896713  0.90063927    -0.80000
C686        C  0.07023287  0.75468410  0.92533077     0.82500
C687        C  0.02178655  0.70115077  0.57402468     0.81800
O688        O  0.01892905  0.66712933  0.93465058    -0.79000
C689        C  0.38126043  0.70109344  0.50478014     0.83000
O690        O  0.06679283  0.72859360  0.93935401    -0.79100
C691        C  0.45904181  0.79962841  0.52522801     0.83100
C692        C  0.42935263  0.75710662  0.85947390     0.83400
O693        O  0.45452194  0.77259168  0.87878059    -0.81500
C694        C  0.00073350  0.57747595  0.88424473     0.79700
N695        N  0.00976770  0.57789875  0.83860627    -0.78600
C696        C  0.01424174  0.60352001  0.81599944     0.82200
N697        N  0.00953834  0.62882275  0.83926900    -0.78500
C698        C  0.00103032  0.62866297  0.88493412     0.82200
N699        N  0.99634397  0.60298744  0.90738043    -0.80300
C700        C  0.02327875  0.60395318  0.76639907     0.79700
N701        N  0.02764618  0.62966489  0.74394024    -0.78600
C702        C  0.03559998  0.63007802  0.69806014     0.82200
N703        N  0.04034191  0.60478041  0.67495617    -0.78500
C704        C  0.03680915  0.57909366  0.69728281     0.82200
N705        N  0.02872705  0.57869393  0.74312130    -0.80300
C706        C  0.04180078  0.51781094  0.61517954     0.79700
N707        N  0.07440580  0.00504445  0.62878092    -0.78600
C708        C  0.09450156  0.51641631  0.66422831     0.82200
N709        N  0.08156919  0.54015699  0.68671232    -0.78500
C710        C  0.04871215  0.55257538  0.67409154     0.82200
N711        N  0.02926878  0.54187565  0.63753734    -0.80300
C712        C  0.40969365  0.93931677  0.81907581     0.79700
N713        N  0.37546165  0.95018198  0.80742996    -0.78600
C714        C  0.35708990  0.93967347  0.76978851     0.82200
N715        N  0.37271040  0.91792065  0.74481866    -0.78500
C716        C  0.40620827  0.90649298  0.75706595     0.82200
N717        N  0.42464754  0.91708474  0.79439476    -0.80300
O718        O  0.43412574  0.91683431  0.99923437    -0.79000
C719        C  0.38178702  0.50394921  0.50575896     0.82000
O720        O  0.46150154  0.96199499  0.85511601    -0.80100
O721        O  0.48204323  0.54950209  0.94915793    -0.81600
O722        O  0.03132207  0.98185539  0.55891978    -0.81400
O723        O  0.49069240  0.91894669  0.53180721    -0.80000
Zn724      Zn  0.42871550  0.95517202  0.96508052     1.55700
O725        O  0.99641652  0.52196297  0.55543978    -0.81400
Cd726      Cd  0.01288957  0.95655452  0.50497288     1.59700
Cd727      Cd  0.49675839  0.98227275  0.90263279     1.59600
O728        O  0.05937170  0.94525019  0.96707040    -0.81400
O729        O  0.47540894  0.97749045  0.96642640    -1.91900
Cd730      Cd  0.46612551  0.51659991  0.99432121     1.59900
O731        O  0.05063444  0.96471342  0.89736970    -0.81400
O732        O  0.40929674  0.52159779  0.50673958    -0.80000
C733        C  0.42940602  0.95013805  0.85990738     0.82500
C734        C  0.45966657  0.90611334  0.52483277     0.82200
O735        O  0.38552584  0.97759771  0.99335060    -0.79000
C736        C  0.02180572  0.50657466  0.57456900     0.83000
O737        O  0.41392791  0.94696992  0.89919432    -0.79100
C738        C  0.07050743  0.95044994  0.92613628     0.83100
C739        C  0.49420416  0.54951544  0.90772340     0.83400
O740        O  0.00041729  0.52604154  0.88561101    -0.81500
C741        C  0.43113103  0.85368421  0.66673517     0.79700
N742        N  0.42660542  0.87934418  0.68921479    -0.78600
C743        C  0.41830455  0.87966201  0.73495010     0.82200
N744        N  0.41339197  0.85428898  0.75786383    -0.78500
C745        C  0.41705067  0.82863852  0.73543305     0.82200
N746        N  0.42544239  0.82835775  0.68972883    -0.80300
C747        C  0.45312064  0.82747729  0.54891073     0.79700
N748        N  0.44438479  0.82780453  0.59458411    -0.78600
C749        C  0.44019584  0.85337483  0.61730153     0.82200
N750        N  0.44482122  0.87871384  0.59414316    -0.78500
C751        C  0.45304776  0.87859566  0.54843497     0.82200
N752        N  0.45746668  0.85298752  0.52582704    -0.80300
C753        C  0.66082519  0.26583679  0.36491953     0.79700
N754        N  0.67450501  0.28915249  0.38825619    -0.78600
C755        C  0.65493607  0.30047767  0.42418805     0.82200
N756        N  0.62132878  0.28894928  0.43595581    -0.78500
C757        C  0.60741837  0.26574806  0.41284090     0.82200
N758        N  0.62708816  0.25426536  0.37702375    -0.80300
C759        C  0.79273123  0.18794014  0.06869655     0.79700
N760        N  0.77891130  0.16478398  0.04514933    -0.78600
C761        C  0.79697193  0.15492040  0.00706724     0.82200
N762        N  0.82955486  0.16739020  0.49370650    -0.78500
C763        C  0.84433922  0.18977152  0.01800950     0.82200
N764        N  0.82574734  0.20018985  0.05540855    -0.80300
O765        O  0.68328206  0.28893506  0.18464442    -0.79000
C766        C  0.63223884  0.20205419  0.17507450     0.82000
O767        O  0.71295070  0.24390949  0.32804063    -0.80100
O768        O  0.73028323  0.15609053  0.23347460    -0.81600
O769        O  0.78158590  0.22422758  0.12410886    -0.81400
O770        O  0.73888578  0.28676439  0.14973455    -0.80000
Zn771      Zn  0.67871007  0.25037304  0.21841173     1.55700
O772        O  0.74764246  0.18363305  0.12834378    -0.81400
Cd773      Cd  0.76222620  0.24964872  0.17730289     1.59700
Cd774      Cd  0.74727342  0.22330897  0.27967600     1.59600
O775        O  0.80872160  0.26146622  0.21479062    -0.81400
O776        O  0.72540713  0.22827491  0.21622981    -1.91900
Cd777      Cd  0.71618564  0.18919587  0.18810487     1.59900
O778        O  0.80166390  0.24022610  0.28350027    -0.81400
O779        O  0.65976931  0.18449298  0.17328543    -0.80000
C780        C  0.68047805  0.25520820  0.32383242     0.82500
C781        C  0.70798412  0.29956118  0.15773609     0.82200
O782        O  0.63578890  0.22803216  0.18941079    -0.79000
C783        C  0.77279986  0.19917962  0.10915751     0.83000
O784        O  0.66441189  0.25798631  0.28478375    -0.79100
C785        C  0.82079604  0.25531257  0.25497809     0.83100
C786        C  0.74234229  0.15604474  0.27491146     0.83400
O787        O  0.74955105  0.17948397  0.29669559    -0.81500
C788        C  0.68065832  0.35258138  0.01541766     0.79700
N789        N  0.67588038  0.37813038  0.49268118    -0.78600
C790        C  0.66772382  0.37827253  0.44688839     0.82200
N791        N  0.66314657  0.35278099  0.42414782    -0.78500
C792        C  0.66713715  0.32719989  0.44677561     0.82200
N793        N  0.67539247  0.32713601  0.49255759    -0.80300
C794        C  0.70006649  0.37812568  0.13420200     0.79700
N795        N  0.69287896  0.37800062  0.08818718    -0.78600
C796        C  0.68911797  0.35253155  0.06509983     0.82200
N797        N  0.69347678  0.32708983  0.08816251    -0.78500
C798        C  0.70065791  0.32706369  0.13422405     0.82200
N799        N  0.70404546  0.35262436  0.15728451    -0.80300
C800        C  0.65943092  0.43795969  0.36248079     0.79700
N801        N  0.67413464  0.41551213  0.38695529    -0.78600
C802        C  0.65571483  0.40508205  0.42445408     0.82200
N803        N  0.62256705  0.41696716  0.43712015    -0.78500
C804        C  0.60723940  0.43892252  0.41228536     0.82200
N805        N  0.62554950  0.44921984  0.37451565    -0.80300
C806        C  0.79173702  0.01600884  0.06647759     0.79700
N807        N  0.77893083  0.03991393  0.04396692    -0.78600
C808        C  0.79819907  0.05066892  0.00739738     0.82200
N809        N  0.83125272  0.03856768  0.49493779    -0.78500
C810        C  0.84452839  0.01498288  0.01754776     0.82200
N811        N  0.82454312  0.50346500  0.05303522    -0.80300
O812        O  0.63449127  0.47863505  0.18941812    -0.79000
C813        C  0.70719572  0.40571056  0.15745128     0.82000
O814        O  0.71133472  0.46048774  0.32649141    -0.80100
O815        O  0.80841234  0.44461010  0.21562215    -0.81600
O816        O  0.74695863  0.02087115  0.12656115    -0.81400
O817        O  0.65951896  0.02193861  0.17408515    -0.80000
Zn818      Zn  0.67735919  0.45537534  0.21676529     1.55700
O819        O  0.78058791  0.48010317  0.12275109    -0.81400
Cd820      Cd  0.71603741  0.01615983  0.18724666     1.59700
Cd821      Cd  0.74577299  0.48177423  0.27927567     1.59600
O822        O  0.73110338  0.04908218  0.23269864    -0.81400
O823        O  0.72455399  0.47702054  0.21541087    -1.91900
Cd824      Cd  0.76180821  0.45544851  0.17735799     1.59900
O825        O  0.74765387  0.02548402  0.29689928    -0.81400
O826        O  0.73892110  0.41772728  0.15146262    -0.80000
C827        C  0.67905542  0.44894877  0.32173106     0.82500
C828        C  0.63147358  0.00487253  0.17611867     0.82200
O829        O  0.68155504  0.41720023  0.18199084    -0.79000
C830        C  0.77175452  0.00501434  0.10722902     0.83000
O831        O  0.66307473  0.44659870  0.28259910    -0.79100
C832        C  0.74184013  0.04900006  0.27471735     0.83100
C833        C  0.81998680  0.45066075  0.25610558     0.83400
O834        O  0.80026002  0.46531616  0.28450044    -0.81500
C835        C  0.74781268  0.12812680  0.29875277     0.79700
N836        N  0.75747813  0.12791417  0.34410474    -0.78600
C837        C  0.76211295  0.10245413  0.36694605     0.82200
N838        N  0.75714589  0.07699651  0.34413562    -0.78500
C839        C  0.74750028  0.07686684  0.29873077     0.82200
N840        N  0.74268969  0.10251892  0.27611506    -0.80300
C841        C  0.77192308  0.10252310  0.41622166     0.79700
N842        N  0.77670411  0.12807831  0.43891144    -0.78600
C843        C  0.78523543  0.12818842  0.48459494     0.82200
N844        N  0.79007161  0.10277855  0.00729497    -0.78500
C845        C  0.78619180  0.07725327  0.48467248     0.82200
N846        N  0.77755217  0.07710890  0.43900149    -0.80300
C847        C  0.54150092  0.19084754  0.11527021     0.79700
N848        N  0.52763725  0.16793139  0.13943885    -0.78600
C849        C  0.54714450  0.15700669  0.17575452     0.82200
N850        N  0.58088547  0.16843818  0.18696334    -0.78500
C851        C  0.59497852  0.19119337  0.16300163     0.82200
N852        N  0.57538945  0.20234580  0.12685597    -0.80300
C853        C  0.90923497  0.26860207  0.31927375     0.79700
N854        N  0.92289026  0.29198443  0.29613387    -0.78600
C855        C  0.90471613  0.30211376  0.25829277     0.82200
N856        N  0.87221773  0.28955786  0.24463530    -0.78500
C857        C  0.85758300  0.26691338  0.26854364     0.82200
N858        N  0.87628982  0.25631185  0.30576157    -0.80300
O859        O  0.53795161  0.19845172  0.03500594    -0.79000
C860        C  0.99387506  0.15623212  0.40842882     0.82000
O861        O  0.54256798  0.27212926  0.42380017    -0.80100
O862        O  0.92069904  0.23194830  0.37411661    -0.81600
O863        O  0.90054836  0.21581673  0.03356577    -0.81400
O864        O  0.98916642  0.21217453  0.07813270    -0.80000
Zn865      Zn  0.52379351  0.20588735  0.46837588     1.55700
O866        O  0.89330283  0.19503857  0.46458015    -0.81400
Cd867      Cd  0.95487508  0.23255452  0.02970232     1.59700
Cd868      Cd  0.98613866  0.26691319  0.43841233     1.59600
O869        O  0.95204588  0.27617386  0.04699053    -0.81400
O870        O  0.97692722  0.22776511  0.46627586    -1.91900
Cd871      Cd  0.93997288  0.20644309  0.42738330     1.59900
O872        O  0.97139195  0.29968694  0.48392897    -0.81400
O873        O  0.96289221  0.16896710  0.40063913    -0.80000
C874        C  0.57023292  0.25468414  0.42533076     0.82500
C875        C  0.52178633  0.20115078  0.07402475     0.81800
O876        O  0.51892921  0.16712944  0.43465054    -0.79000
C877        C  0.88126035  0.20109345  0.00478022     0.83000
O878        O  0.56679292  0.22859366  0.43935412    -0.79100
C879        C  0.95904180  0.29962842  0.02522794     0.83100
C880        C  0.92935266  0.25710659  0.35947385     0.83400
O881        O  0.95452194  0.27259162  0.37878057    -0.81500
C882        C  0.50073356  0.07747596  0.38424459     0.79700
N883        N  0.50976766  0.07789871  0.33860637    -0.78600
C884        C  0.51424175  0.10352002  0.31599937     0.82200
N885        N  0.50953842  0.12882271  0.33926910    -0.78500
C886        C  0.50103056  0.12866300  0.38493411     0.82200
N887        N  0.49634409  0.10298743  0.40738055    -0.80300
C888        C  0.52327865  0.10395318  0.26639914     0.79700
N889        N  0.52764616  0.12966491  0.24394028    -0.78600
C890        C  0.53559997  0.13007800  0.19806017     0.82200
N891        N  0.54034190  0.10478044  0.17495618    -0.78500
C892        C  0.53680914  0.07909363  0.19728289     0.82200
N893        N  0.52872700  0.07869395  0.24312127    -0.80300
C894        C  0.54180075  0.01781096  0.11517955     0.79700
N895        N  0.57440572  0.50504443  0.12878082    -0.78600
C896        C  0.59450157  0.01641636  0.16422825     0.82200
N897        N  0.58156920  0.04015698  0.18671225    -0.78500
C898        C  0.54871208  0.05257539  0.17409157     0.82200
N899        N  0.52926876  0.04187564  0.13753732    -0.80300
C900        C  0.90969356  0.43931675  0.31907568     0.79700
N901        N  0.87546168  0.45018202  0.30743014    -0.78600
C902        C  0.85708974  0.43967341  0.26978835     0.82200
N903        N  0.87271042  0.41792069  0.24481883    -0.78500
C904        C  0.90620816  0.40649295  0.25706583     0.82200
N905        N  0.92464757  0.41708480  0.29439492    -0.80300
O906        O  0.93412579  0.41683429  0.49923430    -0.79000
C907        C  0.88178701  0.00394921  0.00575895     0.82000
O908        O  0.96150155  0.46199500  0.35511591    -0.80100
O909        O  0.98204326  0.04950209  0.44915781    -0.81600
O910        O  0.53132208  0.48185545  0.05891970    -0.81400
O911        O  0.99069240  0.41894663  0.03180724    -0.80000
Zn912      Zn  0.92871552  0.45517203  0.46508064     1.55700
O913        O  0.49641657  0.02196301  0.05543977    -0.81400
Cd914      Cd  0.51288959  0.45655451  0.00497279     1.59700
Cd915      Cd  0.99675841  0.48227276  0.40263266     1.59600
O916        O  0.55937154  0.44525014  0.46707035    -0.81400
O917        O  0.97540898  0.47749040  0.46642630    -1.91900
Cd918      Cd  0.96612551  0.01659993  0.49432110     1.59900
O919        O  0.55063447  0.46471347  0.39736967    -0.81400
O920        O  0.90929668  0.02159779  0.00673976    -0.80000
C921        C  0.92940603  0.45013808  0.35990746     0.82500
C922        C  0.95966657  0.40611332  0.02483284     0.82200
O923        O  0.88552589  0.47759769  0.49335080    -0.79000
C924        C  0.52180576  0.00657466  0.07456897     0.83000
O925        O  0.91392795  0.44696994  0.39919431    -0.79100
C926        C  0.57050738  0.45044995  0.42613622     0.83100
C927        C  0.99420417  0.04951547  0.40772351     0.83400
O928        O  0.50041732  0.02604155  0.38561094    -0.81500
C929        C  0.93113105  0.35368423  0.16673521     0.79700
N930        N  0.92660549  0.37934419  0.18921476    -0.78600
C931        C  0.91830456  0.37966201  0.23495025     0.82200
N932        N  0.91339197  0.35428897  0.25786376    -0.78500
C933        C  0.91705063  0.32863850  0.23543308     0.82200
N934        N  0.92544241  0.32835777  0.18972872    -0.80300
C935        C  0.95312064  0.32747728  0.04891071     0.79700
N936        N  0.94438480  0.32780456  0.09458402    -0.78600
C937        C  0.94019585  0.35337485  0.11730144     0.82200
N938        N  0.94482121  0.37871384  0.09414311    -0.78500
C939        C  0.95304775  0.37859564  0.04843489     0.82200
N940        N  0.95746669  0.35298754  0.02582693    -0.80300
C941        C  0.66082516  0.26583674  0.86491962     0.79700
N942        N  0.67450499  0.28915244  0.88825627    -0.78600
C943        C  0.65493596  0.30047763  0.92418813     0.82200
N944        N  0.62132867  0.28894928  0.93595574    -0.78500
C945        C  0.60741826  0.26574805  0.91284087     0.82200
N946        N  0.62708816  0.25426531  0.87702375    -0.80300
C947        C  0.79273125  0.18794023  0.56869646     0.79700
N948        N  0.77891131  0.16478405  0.54514914    -0.78600
C949        C  0.79697190  0.15492046  0.50706723     0.82200
N950        N  0.82955477  0.16739020  0.99370655    -0.78500
C951        C  0.84433922  0.18977157  0.51800945     0.82200
N952        N  0.82574740  0.20018989  0.55540843    -0.80300
O953        O  0.68328208  0.28893518  0.68464429    -0.79000
C954        C  0.63223895  0.20205418  0.67507456     0.82000
O955        O  0.71295072  0.24390945  0.82804058    -0.80100
O956        O  0.73028343  0.15609051  0.73347446    -0.81600
O957        O  0.78158586  0.22422767  0.62410868    -0.81400
O958        O  0.73888589  0.28676447  0.64973462    -0.80000
Zn959      Zn  0.67871022  0.25037318  0.71841183     1.55700
O960        O  0.74764262  0.18363305  0.62834370    -0.81400
Cd961      Cd  0.76222616  0.24964886  0.67730275     1.59700
Cd962      Cd  0.74727336  0.22330895  0.77967585     1.59600
O963        O  0.80872172  0.26146621  0.71479057    -0.81400
O964        O  0.72540722  0.22827495  0.71622978    -1.91900
Cd965      Cd  0.71618583  0.18919585  0.68810494     1.59900
O966        O  0.80166388  0.24022605  0.78350018    -0.81400
O967        O  0.65976948  0.18449300  0.67328533    -0.80000
C968        C  0.68047810  0.25520817  0.82383241     0.82500
C969        C  0.70798422  0.29956126  0.65773606     0.82200
O970        O  0.63578897  0.22803212  0.68941100    -0.79000
C971        C  0.77279994  0.19917969  0.60915736     0.83000
O972        O  0.66441196  0.25798635  0.78478377    -0.79100
C973        C  0.82079613  0.25531256  0.75497789     0.83100
C974        C  0.74234243  0.15604483  0.77491148     0.83400
O975        O  0.74955100  0.17948400  0.79669548    -0.81500
C976        C  0.68065847  0.35258132  0.51541771     0.79700
N977        N  0.67588027  0.37813036  0.99268116    -0.78600
C978        C  0.66772376  0.37827248  0.94688828     0.82200
N979        N  0.66314650  0.35278094  0.92414780    -0.78500
C980        C  0.66713704  0.32719986  0.94677562     0.82200
N981        N  0.67539235  0.32713601  0.99255766    -0.80300
C982        C  0.70006656  0.37812571  0.63420192     0.79700
N983        N  0.69287895  0.37800059  0.58818718    -0.78600
C984        C  0.68911806  0.35253155  0.56509974     0.82200
N985        N  0.69347698  0.32708980  0.58816252    -0.78500
C986        C  0.70065812  0.32706371  0.63422394     0.82200
N987        N  0.70404562  0.35262440  0.65728448    -0.80300
C988        C  0.65943089  0.43795980  0.86248078     0.79700
N989        N  0.67413469  0.41551215  0.88695538    -0.78600
C990        C  0.65571480  0.40508203  0.92445392     0.82200
N991        N  0.62256700  0.41696709  0.93712007    -0.78500
C992        C  0.60723941  0.43892255  0.91228531     0.82200
N993        N  0.62554952  0.44921984  0.87451572    -0.80300
C994        C  0.79173704  0.01600883  0.56647740     0.79700
N995        N  0.77893074  0.03991393  0.54396698    -0.78600
C996        C  0.79819918  0.05066902  0.50739734     0.82200
N997        N  0.83125274  0.03856759  0.99493768    -0.78500
C998        C  0.84452842  0.01498295  0.51754760     0.82200
N999        N  0.82454311  0.50346499  0.55303519    -0.80300
O1000       O  0.63449150  0.47863505  0.68941800    -0.79000
C1001       C  0.70719587  0.40571061  0.65745120     0.82000
O1002       O  0.71133473  0.46048777  0.82649159    -0.80100
O1003       O  0.80841243  0.44461007  0.71562220    -0.81600
O1004       O  0.74695867  0.02087110  0.62656114    -0.81400
O1005       O  0.65951887  0.02193859  0.67408534    -0.80000
Zn1006     Zn  0.67735938  0.45537532  0.71676540     1.55700
O1007       O  0.78058800  0.48010329  0.62275123    -0.81400
Cd1008     Cd  0.71603733  0.01615982  0.68724677     1.59700
Cd1009     Cd  0.74577294  0.48177421  0.77927580     1.59600
O1010       O  0.73110324  0.04908219  0.73269869    -0.81400
O1011       O  0.72455412  0.47702060  0.71541102    -1.91900
Cd1012     Cd  0.76180837  0.45544867  0.67735812     1.59900
O1013       O  0.74765405  0.02548405  0.79689923    -0.81400
O1014       O  0.73892120  0.41772741  0.65146243    -0.80000
C1015       C  0.67905552  0.44894883  0.82173125     0.82500
C1016       C  0.63147348  0.00487252  0.67611877     0.82200
O1017       O  0.68155526  0.41720020  0.68199096    -0.79000
C1018       C  0.77175449  0.00501435  0.60722907     0.83000
O1019       O  0.66307485  0.44659870  0.78259915    -0.79100
C1020       C  0.74184019  0.04900004  0.77471745     0.83100
C1021       C  0.81998682  0.45066076  0.75610537     0.83400
O1022       O  0.80026012  0.46531633  0.78450035    -0.81500
C1023       C  0.74781278  0.12812683  0.79875261     0.79700
N1024       N  0.75747812  0.12791426  0.84410478    -0.78600
C1025       C  0.76211286  0.10245424  0.86694600     0.82200
N1026       N  0.75714584  0.07699658  0.84413565    -0.78500
C1027       C  0.74750036  0.07686694  0.79873062     0.82200
N1028       N  0.74268991  0.10251899  0.77611501    -0.80300
C1029       C  0.77192304  0.10252308  0.91622170     0.79700
N1030       N  0.77670419  0.12807832  0.93891147    -0.78600
C1031       C  0.78523540  0.12818837  0.98459505     0.82200
N1032       N  0.79007174  0.10277860  0.50729491    -0.78500
C1033       C  0.78619180  0.07725321  0.98467239     0.82200
N1034       N  0.77755213  0.07710892  0.93900144    -0.80300
C1035       C  0.54150112  0.19084756  0.61527001     0.79700
N1036       N  0.52763734  0.16793138  0.63943886    -0.78600
C1037       C  0.54714451  0.15700674  0.67575444     0.82200
N1038       N  0.58088553  0.16843817  0.68696335    -0.78500
C1039       C  0.59497865  0.19119336  0.66300157     0.82200
N1040       N  0.57538962  0.20234572  0.62685588    -0.80300
C1041       C  0.90923499  0.26860199  0.81927371     0.79700
N1042       N  0.92289032  0.29198445  0.79613385    -0.78600
C1043       C  0.90471608  0.30211372  0.75829286     0.82200
N1044       N  0.87221778  0.28955788  0.74463531    -0.78500
C1045       C  0.85758305  0.26691325  0.76854371     0.82200
N1046       N  0.87628996  0.25631179  0.80576147    -0.80300
O1047       O  0.53795179  0.19845170  0.53500579    -0.79000
C1048       C  0.99387496  0.15623214  0.90842885     0.82000
O1049       O  0.54256793  0.27212924  0.92380030    -0.80100
O1050       O  0.92069895  0.23194837  0.87411675    -0.81600
O1051       O  0.90054836  0.21581675  0.53356584    -0.81400
O1052       O  0.98916653  0.21217451  0.57813269    -0.80000
Zn1053     Zn  0.52379342  0.20588733  0.96837597     1.55700
O1054       O  0.89330276  0.19503855  0.96458012    -0.81400
Cd1055     Cd  0.95487522  0.23255449  0.52970243     1.59700
Cd1056     Cd  0.98613859  0.26691316  0.93841220     1.59600
O1057       O  0.95204604  0.27617383  0.54699050    -0.81400
O1058       O  0.97692716  0.22776513  0.96627582    -1.91900
Cd1059     Cd  0.93997278  0.20644322  0.92738341     1.59900
O1060       O  0.97139211  0.29968688  0.98392905    -0.81400
O1061       O  0.96289207  0.16896711  0.90063930    -0.80000
C1062       C  0.57023289  0.25468410  0.92533077     0.82500
C1063       C  0.52178649  0.20115075  0.57402470     0.81800
O1064       O  0.51892903  0.16712941  0.93465053    -0.79000
C1065       C  0.88126038  0.20109350  0.50478018     0.83000
O1066       O  0.56679287  0.22859360  0.93935401    -0.79100
C1067       C  0.95904174  0.29962841  0.52522800     0.83100
C1068       C  0.92935271  0.25710666  0.85947390     0.83400
O1069       O  0.95452190  0.27259165  0.87878058    -0.81500
C1070       C  0.50073351  0.07747594  0.88424476     0.79700
N1071       N  0.50976780  0.07789879  0.83860628    -0.78600
C1072       C  0.51424171  0.10351998  0.81599946     0.82200
N1073       N  0.50953826  0.12882279  0.83926899    -0.78500
C1074       C  0.50103031  0.12866297  0.88493415     0.82200
N1075       N  0.49634394  0.10298746  0.90738042    -0.80300
C1076       C  0.52327869  0.10395322  0.76639905     0.79700
N1077       N  0.52764615  0.12966488  0.74394025    -0.78600
C1078       C  0.53560000  0.13007800  0.69806017     0.82200
N1079       N  0.54034188  0.10478041  0.67495617    -0.78500
C1080       C  0.53680905  0.07909368  0.69728280     0.82200
N1081       N  0.52872697  0.07869391  0.74312129    -0.80300
C1082       C  0.54180087  0.01781088  0.61517953     0.79700
N1083       N  0.57440582  0.50504444  0.62878087    -0.78600
C1084       C  0.59450156  0.01641629  0.66422834     0.82200
N1085       N  0.58156913  0.04015707  0.68671227    -0.78500
C1086       C  0.54871214  0.05257536  0.67409154     0.82200
N1087       N  0.52926869  0.04187567  0.63753734    -0.80300
C1088       C  0.90969362  0.43931676  0.81907581     0.79700
N1089       N  0.87546162  0.45018197  0.80743005    -0.78600
C1090       C  0.85708985  0.43967349  0.76978851     0.82200
N1091       N  0.87271039  0.41792072  0.74481864    -0.78500
C1092       C  0.90620823  0.40649299  0.75706591     0.82200
N1093       N  0.92464754  0.41708476  0.79439474    -0.80300
O1094       O  0.93412573  0.41683432  0.99923441    -0.79000
C1095       C  0.88178696  0.00394924  0.50575897     0.82000
O1096       O  0.96150155  0.46199500  0.85511598    -0.80100
O1097       O  0.98204315  0.04950207  0.94915791    -0.81600
O1098       O  0.53132216  0.48185542  0.55891973    -0.81400
O1099       O  0.99069240  0.41894669  0.53180719    -0.80000
Zn1100     Zn  0.92871549  0.45517201  0.96508052     1.55700
O1101       O  0.49641653  0.02196297  0.55543981    -0.81400
Cd1102     Cd  0.51288952  0.45655450  0.50497289     1.59700
Cd1103     Cd  0.99675855  0.48227273  0.90263278     1.59600
O1104       O  0.55937165  0.44525017  0.96707039    -0.81400
O1105       O  0.97540902  0.47749043  0.96642639    -1.91900
Cd1106     Cd  0.96612544  0.01659989  0.99432122     1.59900
O1107       O  0.55063441  0.46471340  0.89736969    -0.81400
O1108       O  0.90929664  0.02159790  0.50673957    -0.80000
C1109       C  0.92940604  0.45013804  0.85990740     0.82500
C1110       C  0.95966664  0.40611334  0.52483277     0.82200
O1111       O  0.88552592  0.47759772  0.99335062    -0.79000
C1112       C  0.52180565  0.00657471  0.57456899     0.83000
O1113       O  0.91392798  0.44696987  0.89919435    -0.79100
C1114       C  0.57050738  0.45044992  0.92613630     0.83100
C1115       C  0.99420411  0.04951545  0.90772340     0.83400
O1116       O  0.50041721  0.02604153  0.88561099    -0.81500
C1117       C  0.93113096  0.35368425  0.66673516     0.79700
N1118       N  0.92660534  0.37934415  0.68921479    -0.78600
C1119       C  0.91830446  0.37966202  0.73495011     0.82200
N1120       N  0.91339189  0.35428896  0.75786382    -0.78500
C1121       C  0.91705059  0.32863852  0.73543305     0.82200
N1122       N  0.92544232  0.32835773  0.68972882    -0.80300
C1123       C  0.95312062  0.32747727  0.54891076     0.79700
N1124       N  0.94438489  0.32780457  0.59458415    -0.78600
C1125       C  0.94019582  0.35337480  0.61730154     0.82200
N1126       N  0.94482119  0.37871389  0.59414314    -0.78500
C1127       C  0.95304783  0.37859563  0.54843497     0.82200
N1128       N  0.95746664  0.35298754  0.52582703    -0.80300
C1129       C  0.66082511  0.76583679  0.36491951     0.79700
N1130       N  0.67450511  0.78915249  0.38825617    -0.78600
C1131       C  0.65493604  0.80047766  0.42418808     0.82200
N1132       N  0.62132890  0.78894932  0.43595581    -0.78500
C1133       C  0.60741835  0.76574806  0.41284092     0.82200
N1134       N  0.62708821  0.75426542  0.37702367    -0.80300
C1135       C  0.79273125  0.68794012  0.06869663     0.79700
N1136       N  0.77891128  0.66478403  0.04514935    -0.78600
C1137       C  0.79697184  0.65492043  0.00706724     0.82200
N1138       N  0.82955487  0.66739018  0.49370651    -0.78500
C1139       C  0.84433918  0.68977154  0.01800948     0.82200
N1140       N  0.82574740  0.70018983  0.05540858    -0.80300
O1141       O  0.68328205  0.78893509  0.18464443    -0.79000
C1142       C  0.63223881  0.70205421  0.17507453     0.82000
O1143       O  0.71295072  0.74390951  0.32804071    -0.80100
O1144       O  0.73028332  0.65609053  0.23347453    -0.81600
O1145       O  0.78158586  0.72422760  0.12410886    -0.81400
O1146       O  0.73888577  0.78676437  0.14973457    -0.80000
Zn1147     Zn  0.67871018  0.75037305  0.21841172     1.55700
O1148       O  0.74764243  0.68363307  0.12834376    -0.81400
Cd1149     Cd  0.76222613  0.74964874  0.17730290     1.59700
Cd1150     Cd  0.74727334  0.72330899  0.27967601     1.59600
O1151       O  0.80872169  0.76146616  0.21479059    -0.81400
O1152       O  0.72540709  0.72827491  0.21622980    -1.91900
Cd1153     Cd  0.71618556  0.68919588  0.18810486     1.59900
O1154       O  0.80166388  0.74022609  0.28350026    -0.81400
O1155       O  0.65976926  0.68449299  0.17328545    -0.80000
C1156       C  0.68047814  0.75520815  0.32383243     0.82500
C1157       C  0.70798417  0.79956120  0.15773607     0.82200
O1158       O  0.63578888  0.72803218  0.18941080    -0.79000
C1159       C  0.77279990  0.69917965  0.10915754     0.83000
O1160       O  0.66441196  0.75798620  0.28478371    -0.79100
C1161       C  0.82079615  0.75531249  0.25497803     0.83100
C1162       C  0.74234228  0.65604478  0.27491149     0.83400
O1163       O  0.74955093  0.67948397  0.29669562    -0.81500
C1164       C  0.68065838  0.85258140  0.01541767     0.79700
N1165       N  0.67588034  0.87813039  0.49268117    -0.78600
C1166       C  0.66772375  0.87827255  0.44688842     0.82200
N1167       N  0.66314653  0.85278099  0.42414782    -0.78500
C1168       C  0.66713720  0.82719992  0.44677560     0.82200
N1169       N  0.67539248  0.82713602  0.49255758    -0.80300
C1170       C  0.70006644  0.87812566  0.13420203     0.79700
N1171       N  0.69287889  0.87800063  0.08818721    -0.78600
C1172       C  0.68911808  0.85253152  0.06509980     0.82200
N1173       N  0.69347697  0.82708985  0.08816248    -0.78500
C1174       C  0.70065805  0.82706366  0.13422403     0.82200
N1175       N  0.70404558  0.85262439  0.15728449    -0.80300
C1176       C  0.65943092  0.93795968  0.36248082     0.79700
N1177       N  0.67413466  0.91551216  0.38695533    -0.78600
C1178       C  0.65571482  0.90508204  0.42445409     0.82200
N1179       N  0.62256699  0.91696717  0.43712008    -0.78500
C1180       C  0.60723939  0.93892245  0.41228536     0.82200
N1181       N  0.62554949  0.94921983  0.37451557    -0.80300
C1182       C  0.79173701  0.51600882  0.06647754     0.79700
N1183       N  0.77893079  0.53991395  0.04396690    -0.78600
C1184       C  0.79819911  0.55066896  0.00739740     0.82200
N1185       N  0.83125276  0.53856765  0.49493774    -0.78500
C1186       C  0.84452838  0.51498288  0.01754774     0.82200
N1187       N  0.82454319  0.00346500  0.05303525    -0.80300
O1188       O  0.63449145  0.97863511  0.18941810    -0.79000
C1189       C  0.70719564  0.90571059  0.15745129     0.82000
O1190       O  0.71133471  0.96048777  0.32649147    -0.80100
O1191       O  0.80841241  0.94460998  0.21562217    -0.81600
O1192       O  0.74695870  0.52087116  0.12656121    -0.81400
O1193       O  0.65951889  0.52193851  0.17408513    -0.80000
Zn1194     Zn  0.67735935  0.95537536  0.21676528     1.55700
O1195       O  0.78058790  0.98010318  0.12275110    -0.81400
Cd1196     Cd  0.71603732  0.51615984  0.18724666     1.59700
Cd1197     Cd  0.74577293  0.98177424  0.27927568     1.59600
O1198       O  0.73110326  0.54908218  0.23269870    -0.81400
O1199       O  0.72455413  0.97702054  0.21541085    -1.91900
Cd1200     Cd  0.76180836  0.95544851  0.17735799     1.59900
O1201       O  0.74765401  0.52548402  0.29689925    -0.81400
O1202       O  0.73892102  0.91772730  0.15146263    -0.80000
C1203       C  0.67905550  0.94894879  0.32173107     0.82500
C1204       C  0.63147345  0.50487250  0.17611868     0.82200
O1205       O  0.68155497  0.91720024  0.18199085    -0.79000
C1206       C  0.77175449  0.50501437  0.10722904     0.83000
O1207       O  0.66307484  0.94659869  0.28259907    -0.79100
C1208       C  0.74184015  0.54900009  0.27471731     0.83100
C1209       C  0.81998681  0.95066074  0.25610559     0.83400
O1210       O  0.80026008  0.96531620  0.28450037    -0.81500
C1211       C  0.74781264  0.62812674  0.29875275     0.79700
N1212       N  0.75747802  0.62791419  0.34410477    -0.78600
C1213       C  0.76211286  0.60245412  0.36694608     0.82200
N1214       N  0.75714584  0.57699653  0.34413563    -0.78500
C1215       C  0.74750037  0.57686680  0.29873079     0.82200
N1216       N  0.74268981  0.60251896  0.27611501    -0.80300
C1217       C  0.77192304  0.60252308  0.41622167     0.79700
N1218       N  0.77670420  0.62807832  0.43891143    -0.78600
C1219       C  0.78523545  0.62818838  0.48459498     0.82200
N1220       N  0.79007152  0.60277857  0.00729498    -0.78500
C1221       C  0.78619180  0.57725321  0.48467244     0.82200
N1222       N  0.77755210  0.57710891  0.43900148    -0.80300
C1223       C  0.54150093  0.69084746  0.11527017     0.79700
N1224       N  0.52763732  0.66793140  0.13943878    -0.78600
C1225       C  0.54714445  0.65700669  0.17575457     0.82200
N1226       N  0.58088546  0.66843821  0.18696340    -0.78500
C1227       C  0.59497849  0.69119335  0.16300165     0.82200
N1228       N  0.57538956  0.70234578  0.12685595    -0.80300
C1229       C  0.90923491  0.76860203  0.31927377     0.79700
N1230       N  0.92289027  0.79198451  0.29613393    -0.78600
C1231       C  0.90471602  0.80211372  0.25829280     0.82200
N1232       N  0.87221782  0.78955782  0.24463528    -0.78500
C1233       C  0.85758305  0.76691322  0.26854360     0.82200
N1234       N  0.87628996  0.75631181  0.30576158    -0.80300
O1235       O  0.53795173  0.69845174  0.03500593    -0.79000
C1236       C  0.99387509  0.65623210  0.40842883     0.82000
O1237       O  0.54256809  0.77212928  0.42380019    -0.80100
O1238       O  0.92069919  0.73194827  0.37411658    -0.81600
O1239       O  0.90054834  0.71581675  0.03356574    -0.81400
O1240       O  0.98916640  0.71217452  0.07813276    -0.80000
Zn1241     Zn  0.52379347  0.70588735  0.46837587     1.55700
O1242       O  0.89330286  0.69503858  0.46458013    -0.81400
Cd1243     Cd  0.95487520  0.73255452  0.02970231     1.59700
Cd1244     Cd  0.98613859  0.76691321  0.43841233     1.59600
O1245       O  0.95204603  0.77617378  0.04699055    -0.81400
O1246       O  0.97692717  0.72776514  0.46627590    -1.91900
Cd1247     Cd  0.93997300  0.70644310  0.42738330     1.59900
O1248       O  0.97139211  0.79968695  0.48392902    -0.81400
O1249       O  0.96289221  0.66896711  0.40063911    -0.80000
C1250       C  0.57023306  0.75468416  0.42533079     0.82500
C1251       C  0.52178650  0.70115078  0.07402468     0.81800
O1252       O  0.51892917  0.66712934  0.43465065    -0.79000
C1253       C  0.88126032  0.70109347  0.00478018     0.83000
O1254       O  0.56679302  0.72859366  0.43935414    -0.79100
C1255       C  0.95904178  0.79962841  0.02522787     0.83100
C1256       C  0.92935279  0.75710667  0.35947386     0.83400
O1257       O  0.95452190  0.77259168  0.37878060    -0.81500
C1258       C  0.50073363  0.57747598  0.38424465     0.79700
N1259       N  0.50976775  0.57789869  0.33860637    -0.78600
C1260       C  0.51424173  0.60352009  0.31599939     0.82200
N1261       N  0.50953830  0.62882268  0.33926902    -0.78500
C1262       C  0.50103049  0.62866300  0.38493411     0.82200
N1263       N  0.49634417  0.60298742  0.40738054    -0.80300
C1264       C  0.52327868  0.60395306  0.26639913     0.79700
N1265       N  0.52764612  0.62966493  0.24394029    -0.78600
C1266       C  0.53559989  0.63007800  0.19806019     0.82200
N1267       N  0.54034181  0.60478046  0.17495619    -0.78500
C1268       C  0.53680908  0.57909363  0.19728282     0.82200
N1269       N  0.52872696  0.57869397  0.24312130    -0.80300
C1270       C  0.54180082  0.51781094  0.11517954     0.79700
N1271       N  0.57440583  0.00504440  0.12878086    -0.78600
C1272       C  0.59450157  0.51641633  0.16422827     0.82200
N1273       N  0.58156911  0.54015701  0.18671224    -0.78500
C1274       C  0.54871213  0.55257540  0.17409158     0.82200
N1275       N  0.52926869  0.54187568  0.13753728    -0.80300
C1276       C  0.90969357  0.93931675  0.31907569     0.79700
N1277       N  0.87546165  0.95018204  0.30743017    -0.78600
C1278       C  0.85708979  0.93967340  0.26978835     0.82200
N1279       N  0.87271039  0.91792070  0.24481885    -0.78500
C1280       C  0.90620816  0.90649295  0.25706583     0.82200
N1281       N  0.92464757  0.91708484  0.29439489    -0.80300
O1282       O  0.93412568  0.91683430  0.49923431    -0.79000
C1283       C  0.88178700  0.50394921  0.00575897     0.82000
O1284       O  0.96150154  0.96199505  0.35511589    -0.80100
O1285       O  0.98204319  0.54950207  0.44915782    -0.81600
O1286       O  0.53132222  0.98185547  0.05891968    -0.81400
O1287       O  0.99069237  0.91894665  0.03180723    -0.80000
Zn1288     Zn  0.92871548  0.95517205  0.46508065     1.55700
O1289       O  0.49641651  0.52196303  0.05543979    -0.81400
Cd1290     Cd  0.51288972  0.95655453  0.00497279     1.59700
Cd1291     Cd  0.99675855  0.98227278  0.40263266     1.59600
O1292       O  0.55937165  0.94525017  0.46707039    -0.81400
O1293       O  0.97540899  0.97749047  0.46642630    -1.91900
Cd1294     Cd  0.96612565  0.51659977  0.49432109     1.59900
O1295       O  0.55063442  0.96471346  0.39736971    -0.81400
O1296       O  0.90929668  0.52159780  0.00673975    -0.80000
C1297       C  0.92940602  0.95013811  0.35990748     0.82500
C1298       C  0.95966661  0.90611332  0.02483286     0.82200
O1299       O  0.88552596  0.97759775  0.49335083    -0.79000
C1300       C  0.52180561  0.50657472  0.07456894     0.83000
O1301       O  0.91392799  0.94696994  0.39919433    -0.79100
C1302       C  0.57050734  0.95044997  0.42613615     0.83100
C1303       C  0.99420410  0.54951548  0.40772354     0.83400
O1304       O  0.50041748  0.52604157  0.38561095    -0.81500
C1305       C  0.93113099  0.85368422  0.16673521     0.79700
N1306       N  0.92660540  0.87934415  0.18921472    -0.78600
C1307       C  0.91830448  0.87966202  0.23495024     0.82200
N1308       N  0.91339188  0.85428895  0.25786374    -0.78500
C1309       C  0.91705054  0.82863853  0.23543308     0.82200
N1310       N  0.92544232  0.82835773  0.18972874    -0.80300
C1311       C  0.95312058  0.82747718  0.04891077     0.79700
N1312       N  0.94438493  0.82780452  0.09458406    -0.78600
C1313       C  0.94019593  0.85337478  0.11730147     0.82200
N1314       N  0.94482121  0.87871381  0.09414313    -0.78500
C1315       C  0.95304779  0.87859558  0.04843487     0.82200
N1316       N  0.95746663  0.85298753  0.02582692    -0.80300
C1317       C  0.66082517  0.76583675  0.86491962     0.79700
N1318       N  0.67450509  0.78915244  0.88825624    -0.78600
C1319       C  0.65493607  0.80047760  0.92418818     0.82200
N1320       N  0.62132883  0.78894922  0.93595580    -0.78500
C1321       C  0.60741833  0.76574805  0.91284091     0.82200
N1322       N  0.62708825  0.75426531  0.87702369    -0.80300
C1323       C  0.79273126  0.68794024  0.56869640     0.79700
N1324       N  0.77891135  0.66478402  0.54514921    -0.78600
C1325       C  0.79697200  0.65492041  0.50706724     0.82200
N1326       N  0.82955470  0.66739023  0.99370651    -0.78500
C1327       C  0.84433929  0.68977157  0.51800948     0.82200
N1328       N  0.82574739  0.70018989  0.55540840    -0.80300
O1329       O  0.68328210  0.78893517  0.68464434    -0.79000
C1330       C  0.63223892  0.70205421  0.67507453     0.82000
O1331       O  0.71295072  0.74390951  0.82804063    -0.80100
O1332       O  0.73028351  0.65609054  0.73347447    -0.81600
O1333       O  0.78158597  0.72422765  0.62410870    -0.81400
O1334       O  0.73888587  0.78676446  0.64973456    -0.80000
Zn1335     Zn  0.67871016  0.75037320  0.71841184     1.55700
O1336       O  0.74764254  0.68363311  0.62834366    -0.81400
Cd1337     Cd  0.76222628  0.74964887  0.67730275     1.59700
Cd1338     Cd  0.74727329  0.72330897  0.77967609     1.59600
O1339       O  0.80872168  0.76146624  0.71479059    -0.81400
O1340       O  0.72540720  0.72827497  0.71622985    -1.91900
Cd1341     Cd  0.71618574  0.68919587  0.68810495     1.59900
O1342       O  0.80166380  0.74022608  0.78350020    -0.81400
O1343       O  0.65976941  0.68449299  0.67328533    -0.80000
C1344       C  0.68047811  0.75520819  0.82383240     0.82500
C1345       C  0.70798419  0.79956122  0.65773605     0.82200
O1346       O  0.63578901  0.72803214  0.68941096    -0.79000
C1347       C  0.77279992  0.69917971  0.60915735     0.83000
O1348       O  0.66441191  0.75798634  0.78478380    -0.79100
C1349       C  0.82079606  0.75531259  0.75497792     0.83100
C1350       C  0.74234245  0.65604482  0.77491147     0.83400
O1351       O  0.74955108  0.67948399  0.79669554    -0.81500
C1352       C  0.68065849  0.85258135  0.51541771     0.79700
N1353       N  0.67588023  0.87813037  0.99268117    -0.78600
C1354       C  0.66772367  0.87827249  0.94688830     0.82200
N1355       N  0.66314647  0.85278094  0.92414781    -0.78500
C1356       C  0.66713709  0.82719986  0.94677564     0.82200
N1357       N  0.67539237  0.82713602  0.99255766    -0.80300
C1358       C  0.70006661  0.87812572  0.63420190     0.79700
N1359       N  0.69287908  0.87800060  0.58818716    -0.78600
C1360       C  0.68911805  0.85253158  0.56509972     0.82200
N1361       N  0.69347688  0.82708980  0.58816254    -0.78500
C1362       C  0.70065803  0.82706372  0.63422393     0.82200
N1363       N  0.70404555  0.85262438  0.65728450    -0.80300
C1364       C  0.65943096  0.93795974  0.86248080     0.79700
N1365       N  0.67413465  0.91551214  0.88695533    -0.78600
C1366       C  0.65571476  0.90508201  0.92445397     0.82200
N1367       N  0.62256702  0.91696713  0.93712011    -0.78500
C1368       C  0.60723941  0.93892257  0.91228529     0.82200
N1369       N  0.62554948  0.94921983  0.87451569    -0.80300
C1370       C  0.79173703  0.51600891  0.56647744     0.79700
N1371       N  0.77893083  0.53991396  0.54396702    -0.78600
C1372       C  0.79819913  0.55066904  0.50739731     0.82200
N1373       N  0.83125277  0.53856764  0.99493774    -0.78500
C1374       C  0.84452842  0.51498297  0.51754761     0.82200
N1375       N  0.82454307  0.00346500  0.55303521    -0.80300
O1376       O  0.63449138  0.97863504  0.68941800    -0.79000
C1377       C  0.70719582  0.90571062  0.65745122     0.82000
O1378       O  0.71133480  0.96048775  0.82649156    -0.80100
O1379       O  0.80841242  0.94461008  0.71562217    -0.81600
O1380       O  0.74695864  0.52087118  0.62656111    -0.81400
O1381       O  0.65951901  0.52193859  0.67408534    -0.80000
Zn1382     Zn  0.67735929  0.95537534  0.71676540     1.55700
O1383       O  0.78058804  0.98010321  0.62275120    -0.81400
Cd1384     Cd  0.71603748  0.51615983  0.68724677     1.59700
Cd1385     Cd  0.74577308  0.98177422  0.77927580     1.59600
O1386       O  0.73110317  0.54908221  0.73269868    -0.81400
O1387       O  0.72455405  0.97702062  0.71541104    -1.91900
Cd1388     Cd  0.76180828  0.95544868  0.67735812     1.59900
O1389       O  0.74765393  0.52548406  0.79689922    -0.81400
O1390       O  0.73892112  0.91772746  0.65146245    -0.80000
C1391       C  0.67905547  0.94894882  0.82173120     0.82500
C1392       C  0.63147360  0.50487252  0.67611875     0.82200
O1393       O  0.68155518  0.91720019  0.68199095    -0.79000
C1394       C  0.77175454  0.50501438  0.60722908     0.83000
O1395       O  0.66307482  0.94659874  0.78259920    -0.79100
C1396       C  0.74184009  0.54900005  0.77471746     0.83100
C1397       C  0.81998688  0.95066068  0.75610535     0.83400
O1398       O  0.80026012  0.96531619  0.78450041    -0.81500
C1399       C  0.74781271  0.62812681  0.79875268     0.79700
N1400       N  0.75747807  0.62791423  0.84410478    -0.78600
C1401       C  0.76211298  0.60245414  0.86694595     0.82200
N1402       N  0.75714597  0.57699656  0.84413561    -0.78500
C1403       C  0.74750030  0.57686691  0.79873059     0.82200
N1404       N  0.74268980  0.60251898  0.77611504    -0.80300
C1405       C  0.77192311  0.60252311  0.91622169     0.79700
N1406       N  0.77670414  0.62807829  0.93891144    -0.78600
C1407       C  0.78523529  0.62818840  0.98459506     0.82200
N1408       N  0.79007168  0.60277860  0.50729491    -0.78500
C1409       C  0.78619177  0.57725325  0.98467243     0.82200
N1410       N  0.77755213  0.57710889  0.93900146    -0.80300
C1411       C  0.54150104  0.69084754  0.61527008     0.79700
N1412       N  0.52763732  0.66793139  0.63943887    -0.78600
C1413       C  0.54714455  0.65700668  0.67575443     0.82200
N1414       N  0.58088559  0.66843816  0.68696327    -0.78500
C1415       C  0.59497860  0.69119338  0.66300162     0.82200
N1416       N  0.57538955  0.70234576  0.62685590    -0.80300
C1417       C  0.90923500  0.76860202  0.81927374     0.79700
N1418       N  0.92289034  0.79198442  0.79613380    -0.78600
C1419       C  0.90471613  0.80211373  0.75829285     0.82200
N1420       N  0.87221774  0.78955790  0.74463533    -0.78500
C1421       C  0.85758302  0.76691330  0.76854374     0.82200
N1422       N  0.87628990  0.75631182  0.80576151    -0.80300
O1423       O  0.53795169  0.69845172  0.53500581    -0.79000
C1424       C  0.99387498  0.65623210  0.90842884     0.82000
O1425       O  0.54256803  0.77212926  0.92380030    -0.80100
O1426       O  0.92069906  0.73194839  0.87411675    -0.81600
O1427       O  0.90054844  0.71581670  0.53356586    -0.81400
O1428       O  0.98916654  0.71217451  0.57813264    -0.80000
Zn1429     Zn  0.52379339  0.70588732  0.96837597     1.55700
O1430       O  0.89330274  0.69503858  0.96458008    -0.81400
Cd1431     Cd  0.95487515  0.73255451  0.52970243     1.59700
Cd1432     Cd  0.98613851  0.76691318  0.93841220     1.59600
O1433       O  0.95204598  0.77617386  0.54699046    -0.81400
O1434       O  0.97692715  0.72776516  0.96627582    -1.91900
Cd1435     Cd  0.93997290  0.70644323  0.92738341     1.59900
O1436       O  0.97139198  0.79968687  0.98392903    -0.81400
O1437       O  0.96289207  0.66896712  0.90063927    -0.80000
C1438       C  0.57023298  0.75468410  0.92533075     0.82500
C1439       C  0.52178641  0.70115075  0.57402471     0.81800
O1440       O  0.51892913  0.66712933  0.93465060    -0.79000
C1441       C  0.88126043  0.70109343  0.50478015     0.83000
O1442       O  0.56679292  0.72859360  0.93935401    -0.79100
C1443       C  0.95904185  0.79962841  0.52522801     0.83100
C1444       C  0.92935272  0.75710666  0.85947389     0.83400
O1445       O  0.95452196  0.77259168  0.87878053    -0.81500
C1446       C  0.50073351  0.57747596  0.88424479     0.79700
N1447       N  0.50976770  0.57789875  0.83860624    -0.78600
C1448       C  0.51424161  0.60352000  0.81599942     0.82200
N1449       N  0.50953819  0.62882275  0.83926895    -0.78500
C1450       C  0.50103036  0.62866297  0.88493416     0.82200
N1451       N  0.49634408  0.60298744  0.90738044    -0.80300
C1452       C  0.52327864  0.60395319  0.76639903     0.79700
N1453       N  0.52764604  0.62966490  0.74394020    -0.78600
C1454       C  0.53560003  0.63007800  0.69806014     0.82200
N1455       N  0.54034201  0.60478040  0.67495619    -0.78500
C1456       C  0.53680918  0.57909366  0.69728282     0.82200
N1457       N  0.52872708  0.57869394  0.74312132    -0.80300
C1458       C  0.54180083  0.51781090  0.61517953     0.79700
N1459       N  0.57440574  0.00504442  0.62878096    -0.78600
C1460       C  0.59450161  0.51641631  0.66422831     0.82200
N1461       N  0.58156912  0.54015697  0.68671233    -0.78500
C1462       C  0.54871212  0.55257534  0.67409158     0.82200
N1463       N  0.52926869  0.54187564  0.63753736    -0.80300
C1464       C  0.90969368  0.93931680  0.81907579     0.79700
N1465       N  0.87546173  0.95018197  0.80742997    -0.78600
C1466       C  0.85708986  0.93967348  0.76978851     0.82200
N1467       N  0.87271049  0.91792064  0.74481867    -0.78500
C1468       C  0.90620831  0.90649300  0.75706591     0.82200
N1469       N  0.92464764  0.91708475  0.79439476    -0.80300
O1470       O  0.93412571  0.91683432  0.99923442    -0.79000
C1471       C  0.88178701  0.50394920  0.50575895     0.82000
O1472       O  0.96150163  0.96199499  0.85511600    -0.80100
O1473       O  0.98204330  0.54950209  0.94915794    -0.81600
O1474       O  0.53132216  0.98185541  0.55891975    -0.81400
O1475       O  0.99069229  0.91894671  0.53180719    -0.80000
Zn1476     Zn  0.92871559  0.95517202  0.96508052     1.55700
O1477       O  0.49641645  0.52196293  0.55543983    -0.81400
Cd1478     Cd  0.51288966  0.95655452  0.50497288     1.59700
Cd1479     Cd  0.99675850  0.98227275  0.90263279     1.59600
O1480       O  0.55937166  0.94525017  0.96707037    -0.81400
O1481       O  0.97540898  0.97749046  0.96642638    -1.91900
Cd1482     Cd  0.96612558  0.51659991  0.99432122     1.59900
O1483       O  0.55063436  0.96471342  0.89736969    -0.81400
O1484       O  0.90929676  0.52159776  0.50673960    -0.80000
C1485       C  0.92940612  0.95013805  0.85990738     0.82500
C1486       C  0.95966654  0.90611334  0.52483279     0.82200
O1487       O  0.88552593  0.97759772  0.99335059    -0.79000
C1488       C  0.52180564  0.50657469  0.57456898     0.83000
O1489       O  0.91392801  0.94696992  0.89919432    -0.79100
C1490       C  0.57050739  0.95044993  0.92613629     0.83100
C1491       C  0.99420411  0.54951546  0.90772344     0.83400
O1492       O  0.50041739  0.52604155  0.88561105    -0.81500
C1493       C  0.93113100  0.85368420  0.66673518     0.79700
N1494       N  0.92660547  0.87934418  0.68921477    -0.78600
C1495       C  0.91830465  0.87966201  0.73495014     0.82200
N1496       N  0.91339202  0.85428898  0.75786382    -0.78500
C1497       C  0.91705063  0.82863852  0.73543306     0.82200
N1498       N  0.92544239  0.82835775  0.68972880    -0.80300
C1499       C  0.95312076  0.82747729  0.54891075     0.79700
N1500       N  0.94438490  0.82780453  0.59458414    -0.78600
C1501       C  0.94019586  0.85337483  0.61730150     0.82200
N1502       N  0.94482112  0.87871384  0.59414314    -0.78500
C1503       C  0.95304778  0.87859565  0.54843493     0.82200
N1504       N  0.95746679  0.85298753  0.52582706    -0.80300
loop_ 
_geom_bond_atom_site_label_1 
_geom_bond_atom_site_label_2 
_geom_bond_distance 
_geom_bond_site_symmetry_2 
_ccdc_geom_bond_type 
C1            N2   1.360       .  A
C1            N6   1.363       .  A
C1           C28   1.466       .  S
N2            C3   1.358       .  A
C3            N4   1.355       .  A
C3           C40   1.461       .  S
N4            C5   1.355       .  A
C5            N6   1.360       .  A
C5          C122   1.467       .  S
C7            N8   1.359       .  A
C7           N12   1.362       .  A
C7           C31   1.465       .  S
N8            C9   1.356       .  A
C9          N198   1.354   1_554  A
C9          C279   1.455   1_554  S
N10         C197   1.354       .  A
N10         C199   1.355       .  A
C11          N12   1.358       .  A
C11         N198   1.355   1_554  A
C11         C125   1.468       .  S
O13          C29   1.274       .  A
O13         Zn19   2.035       .  S
C14          C99   1.463       .  S
C14          O30   1.273       .  A
C14          O27   1.274       .  A
O15          C28   1.277       .  A
O15         Cd22   2.089       .  S
O16          C34   1.274       .  A
O16         Cd25   2.075       .  S
O17          C31   1.272       .  A
O17         Cd21   2.055       .  S
O18          C29   1.272       .  A
O18         Cd21   2.063       .  S
Zn19         O30   2.028       .  S
Zn19         O32   2.019       .  S
Zn19         O24   1.955       .  S
O20          C31   1.276       .  A
O20         Cd25   2.079       .  S
Cd21         O23   2.056       .  S
Cd21         O24   1.992       .  S
Cd22         O26   2.095       .  S
Cd22         O35   2.080       .  S
Cd22         O24   2.009       .  S
O23          C33   1.273       .  A
O24         Cd25   2.004       .  S
Cd25         O27   2.070       .  S
O26          C33   1.277       .  A
C28          O32   1.274       .  A
C29          C46   1.462       .  S
C33         C105   1.471       .  S
C34          C83   1.473       .  S
C34          O35   1.277       .  A
C36         N225   1.360   1_554  A
C36         N229   1.360   1_554  A
C36          C44   1.470       .  S
N37          C38   1.357       .  A
N37         C224   1.360       .  A
C38          N39   1.356       .  A
C38          C50   1.460       .  S
N39          C40   1.356       .  A
C40          N41   1.358       .  A
N41         C224   1.360       .  A
C42          N43   1.357       .  A
C42          N47   1.359       .  A
C42          C61   1.461       .  S
N43          C44   1.357       .  A
C44          N45   1.358       .  A
N45          C46   1.358       .  A
C46          N47   1.359       .  A
C48          N49   1.359       .  A
C48          N53   1.362       .  A
C48          C75   1.462       .  S
N49          C50   1.357       .  A
C50          N51   1.355       .  A
N51          C52   1.356       .  A
C52          N53   1.359       .  A
C52         C174   1.471       .  S
C54          N55   1.359       .  A
C54         N435   1.363       .  A
C54          C78   1.469       .  S
N55          C56   1.356       .  A
C56         N245   1.354   1_554  A
C56         C281   1.455   1_554  S
N57         C244   1.354       .  A
N57         C246   1.354       .  A
C58         N245   1.354   1_554  A
C58         N435   1.359       .  A
C58         C155   1.465       .  S
N59         C430   1.363       .  A
N59         C434   1.359       .  A
O60         C452   1.273       .  A
O60         Zn66   2.029       .  S
C61          O77   1.274       .  A
C61          O74   1.272       .  A
O62          C75   1.276       .  A
O62         Cd69   2.084       .  S
O63          C81   1.273       .  A
O63         Cd72   2.060       .  S
O64          C78   1.277       .  A
O64         Cd68   2.086       .  S
O65          C76   1.274       .  A
O65         Cd68   2.071       .  S
Zn66         O77   2.033       .  S
Zn66         O79   2.014       .  S
Zn66         O71   1.958       .  S
O67         C454   1.273       .  A
O67         Cd72   2.059       .  S
Cd68         O70   2.079       .  S
Cd68        O447   2.003   1_545  S
Cd69         O82   2.094       .  S
Cd69        O449   2.079       .  S
Cd69         O71   2.010       .  S
O70          C80   1.275       .  A
O71         Cd72   1.993       .  S
O71        Cd444   2.003       .  S
Cd72         O74   2.062       .  S
O73          C80   1.277       .  A
O73        Cd445   2.079   1_545  S
C75          O79   1.273       .  A
C76         C144   1.464       .  S
C76         O436   1.273   1_545  A
C78         O443   1.273   1_545  A
C80          C87   1.474       .  S
C81         C150   1.472       .  S
C81          O82   1.276       .  A
C83          N84   1.357       .  A
C83          N88   1.362       .  A
N84          C85   1.357       .  A
C85          N86   1.358       .  A
C85          C89   1.469       .  S
N86          C87   1.359       .  A
C87          N88   1.362       .  A
C89          N90   1.359       .  A
C89          N94   1.359       .  A
N90          C91   1.357       .  A
C91         N280   1.354       .  A
C91         C197   1.455       .  S
N92         C279   1.354   1_554  A
N92         C281   1.353   1_554  A
C93          N94   1.358       .  A
C93         N280   1.353       .  A
C93         C244   1.455       .  S
C95          N96   1.360       .  A
C95         N100   1.362       .  A
C95         C123   1.465       .  S
N96          C97   1.358       .  A
C97          N98   1.354       .  A
C97         C138   1.458       .  S
N98          C99   1.354       .  A
C99         N100   1.359       .  A
C101        N102   1.359       .  A
C101        N106   1.362       .  A
C101        C128   1.466       .  S
N102        C103   1.356       .  A
C103        N104   1.355       .  A
C103        C181   1.458       .  S
N104        C105   1.357       .  A
C105        N106   1.358       .  A
O107        C123   1.275       .  A
O107       Zn301   2.023   1_554  S
C108        C886   1.464       .  S
C108        O121   1.272       .  A
C108        O876   1.276       .  A
O109        C122   1.275       .  A
O109       Cd868   2.072   1_455  S
O110        C128   1.272       .  A
O110       Cd119   2.057       .  S
O111        C125   1.276       .  A
O111       Cd115   2.090       .  S
O112        C875   1.276       .  A
O112       Cd115   2.085       .  S
Zn113       O124   2.043       .  S
Zn113       O126   2.039       .  S
Zn113       O295   2.023       .  S
Zn113       O870   1.955   1_455  S
O114        C313   1.272       .  A
O114       Cd119   2.052       .  S
Cd115       O117   2.074       .  S
Cd115       O306   2.010   1_554  S
Cd116       O120   2.073       .  S
Cd116       O129   2.079       .  S
Cd116       O861   2.072       .  S
Cd116       O118   2.003       .  S
O117        C127   1.276       .  A
O118       Zn865   1.955       .  S
O118       Cd119   1.993       .  S
O118       Cd303   2.010       .  S
Cd119       O121   2.062       .  S
O120        C315   1.274       .  A
C122        O126   1.275       .  A
C123        O864   1.276   1_455  A
O124        C860   1.276   1_455  A
C125        O302   1.272   1_554  A
C127        C183   1.470       .  S
C127        O308   1.274   1_554  A
C128        O129   1.276       .  A
C130        N131   1.360       .  A
C130        N135   1.362   1_455  A
C130        C927   1.475   1_455  S
N131        C132   1.359       .  A
C132        N133   1.357       .  A
C132        C136   1.472       .  S
N133        C134   1.356       .  A
C134        N135   1.360   1_455  A
C134        C860   1.464   1_455  S
C136        N137   1.360       .  A
C136        N141   1.359       .  A
N137        C138   1.358       .  A
C138        N139   1.355       .  A
N139        C140   1.354       .  A
C140        N141   1.358       .  A
C140        C146   1.458       .  S
C142        N147   1.360       .  A
C142        N519   1.362       .  A
C142        C172   1.469       .  S
N143        C518   1.362       .  A
N143        C520   1.357       .  A
C144        N145   1.354       .  A
C144        N519   1.357       .  A
N145        C146   1.355       .  A
C146        N147   1.358       .  A
C148        N149   1.363       .  A
C148        N153   1.359       .  A
C148        C169   1.463       .  S
N149        C150   1.361       .  A
C150        N151   1.356       .  A
N151        C152   1.354       .  A
C152        N153   1.356       .  A
C152        C179   1.458       .  S
O154        C358   1.275       .  A
O154       Zn160   2.034       .  S
C155        O168   1.275       .  A
C155        O735   1.273   1_544  A
O156        C169   1.277       .  A
O156       Cd163   2.085       .  S
O157        C175   1.276       .  A
O157       Cd166   2.081       .  S
O158        C548   1.272       .  A
O158       Cd162   2.057       .  S
O159        C170   1.271       .  A
O159       Cd914   2.058       .  S
Zn160       O171   2.029       .  S
Zn160       O173   2.015       .  S
Zn160       O165   1.959       .  S
O161        C172   1.277   1_655  A
O161      Cd1106   2.088   1_554  S
Cd162       O911   2.058   1_455  S
Cd162       O352   2.057   1_554  S
Cd162      O1105   1.992   1_454  S
Cd163       O919   2.093       .  S
Cd163      O1304   2.080       .  S
Cd163       O165   2.010       .  S
O164        C174   1.273       .  A
O164       Cd350   2.057       .  S
O165      Cd1102   1.992       .  S
O165       Cd542   2.003       .  S
Cd166      O1101   2.088       .  S
Cd166       O356   2.073       .  S
Cd166       O541   2.003   1_545  S
O167        C174   1.276       .  A
O167       Cd915   2.093   1_455  S
O168       Cd354   2.073   1_554  S
C169        O173   1.273       .  A
C170        C187   1.460       .  S
C170        O342   1.275   1_554  A
O171        C719   1.273       .  A
C172        O534   1.272   1_545  A
C175        C882   1.475       .  S
C175        O928   1.277       .  A
O176        C927   1.277   1_455  A
O176      Cd1291   2.080   1_445  S
C177        N178   1.360       .  A
C177        N182   1.359       .  A
C177        C185   1.467       .  S
N178        C179   1.357       .  A
C179        N180   1.356       .  A
N180        C181   1.355       .  A
C181        N182   1.357       .  A
C183        N184   1.359       .  A
C183        N188   1.361       .  A
N184        C185   1.358       .  A
C185        N186   1.356       .  A
N186        C187   1.355       .  A
C187        N188   1.359       .  A
C189        N190   1.360       .  A
C189        N194   1.363       .  A
C189        C216   1.466       .  S
N190        C191   1.358       .  A
C191        N192   1.355       .  A
C191        C228   1.461       .  S
N192        C193   1.355       .  A
C193        N194   1.360       .  A
C193        C310   1.467       .  S
C195        N196   1.359       .  A
C195        N200   1.362       .  A
C195        C219   1.465       .  S
N196        C197   1.356       .  A
C199        N200   1.358       .  A
C199        C313   1.468       .  S
O201        C217   1.274       .  A
O201       Zn207   2.035       .  S
C202        C287   1.463       .  S
C202        O218   1.273       .  A
C202        O215   1.274       .  A
O203        C216   1.277       .  A
O203       Cd210   2.089       .  S
O204        C222   1.274       .  A
O204       Cd213   2.075       .  S
O205        C219   1.272       .  A
O205       Cd209   2.055       .  S
O206        C217   1.272       .  A
O206       Cd209   2.063       .  S
Zn207       O218   2.028       .  S
Zn207       O220   2.019       .  S
Zn207       O212   1.955       .  S
O208        C219   1.276       .  A
O208       Cd213   2.079       .  S
Cd209       O211   2.056       .  S
Cd209       O212   1.992       .  S
Cd210       O214   2.095       .  S
Cd210       O223   2.080       .  S
Cd210       O212   2.009       .  S
O211        C221   1.273       .  A
O212       Cd213   2.004       .  S
Cd213       O215   2.070       .  S
O214        C221   1.277       .  A
C216        O220   1.274       .  A
C217        C234   1.462       .  S
C221        C293   1.471       .  S
C222        C271   1.473       .  S
C222        O223   1.277       .  A
C224        C232   1.470       .  S
N225        C226   1.357       .  A
C226        N227   1.356       .  A
C226        C238   1.460       .  S
N227        C228   1.356       .  A
C228        N229   1.358       .  A
C230        N231   1.357       .  A
C230        N235   1.359       .  A
C230        C249   1.461       .  S
N231        C232   1.357       .  A
C232        N233   1.358       .  A
N233        C234   1.358       .  A
C234        N235   1.359       .  A
C236        N237   1.359       .  A
C236        N241   1.362       .  A
C236        C263   1.462       .  S
N237        C238   1.357       .  A
C238        N239   1.355       .  A
N239        C240   1.356       .  A
C240        N241   1.359       .  A
C240        C362   1.471       .  S
C242        N243   1.359       .  A
C242        N623   1.363       .  A
C242        C266   1.469       .  S
N243        C244   1.356       .  A
C246        N623   1.359       .  A
C246        C343   1.465       .  S
N247        C618   1.363       .  A
N247        C622   1.359       .  A
O248        C640   1.273       .  A
O248       Zn254   2.029       .  S
C249        O265   1.274       .  A
C249        O262   1.272       .  A
O250        C263   1.276       .  A
O250       Cd257   2.084       .  S
O251        C269   1.273       .  A
O251       Cd260   2.060       .  S
O252        C266   1.277       .  A
O252       Cd256   2.086       .  S
O253        C264   1.274       .  A
O253       Cd256   2.071       .  S
Zn254       O265   2.033       .  S
Zn254       O267   2.014       .  S
Zn254       O259   1.958       .  S
O255        C642   1.273       .  A
O255       Cd260   2.059       .  S
Cd256       O258   2.079       .  S
Cd256       O635   2.003   1_545  S
Cd257       O637   2.079       .  S
Cd257       O270   2.094       .  S
Cd257       O259   2.010       .  S
O258        C268   1.275       .  A
O259       Cd632   2.003       .  S
O259       Cd260   1.993       .  S
Cd260       O262   2.062       .  S
O261        C268   1.277       .  A
O261       Cd633   2.079   1_545  S
C263        O267   1.273       .  A
C264        C332   1.464       .  S
C264        O624   1.273   1_545  A
C266        O631   1.273   1_545  A
C268        C275   1.474       .  S
C269        C338   1.472       .  S
C269        O270   1.276       .  A
C271        N272   1.357       .  A
C271        N276   1.362       .  A
N272        C273   1.357       .  A
C273        N274   1.358       .  A
C273        C277   1.469       .  S
N274        C275   1.359       .  A
C275        N276   1.362       .  A
C277        N278   1.359       .  A
C277        N282   1.359       .  A
N278        C279   1.357       .  A
C281        N282   1.358       .  A
C283        N284   1.360       .  A
C283        N288   1.362       .  A
C283        C311   1.465       .  S
N284        C285   1.358       .  A
C285        N286   1.354       .  A
C285        C326   1.458       .  S
N286        C287   1.354       .  A
C287        N288   1.359       .  A
C289        N290   1.359       .  A
C289        N294   1.362       .  A
C289        C316   1.466       .  S
N290        C291   1.356       .  A
C291        N292   1.355       .  A
C291        C369   1.458       .  S
N292        C293   1.357       .  A
C293        N294   1.358       .  A
O295        C311   1.275       .  A
C296       C1074   1.464       .  S
C296       O1064   1.276       .  A
C296        O309   1.272       .  A
O297        C310   1.275       .  A
O297      Cd1056   2.072   1_455  S
O298        C316   1.272       .  A
O298       Cd307   2.057       .  S
O299        C313   1.276       .  A
O299       Cd303   2.090       .  S
O300       C1063   1.276       .  A
O300       Cd303   2.085       .  S
Zn301       O312   2.043       .  S
Zn301       O314   2.039       .  S
Zn301      O1058   1.955   1_455  S
O302       Cd307   2.052       .  S
Cd303       O305   2.074       .  S
Cd304      O1049   2.072       .  S
Cd304       O308   2.073       .  S
Cd304       O317   2.079       .  S
Cd304       O306   2.003       .  S
O305        C315   1.276       .  A
O306      Zn1053   1.955       .  S
O306       Cd307   1.993       .  S
Cd307       O309   2.062       .  S
C310        O314   1.275       .  A
C311       O1052   1.276   1_455  A
O312       C1048   1.276   1_455  A
C315        C371   1.470       .  S
C316        O317   1.276       .  A
C318        N319   1.360       .  A
C318        N323   1.362   1_455  A
C318       C1115   1.475   1_455  S
N319        C320   1.359       .  A
C320        N321   1.357       .  A
C320        C324   1.472       .  S
N321        C322   1.357       .  A
C322        N323   1.360   1_455  A
C322       C1048   1.464   1_455  S
C324        N325   1.360       .  A
C324        N329   1.359       .  A
N325        C326   1.358       .  A
C326        N327   1.355       .  A
N327        C328   1.354       .  A
C328        N329   1.358       .  A
C328        C334   1.458       .  S
C330        N707   1.362       .  A
C330        N335   1.360       .  A
C330        C360   1.469       .  S
N331        C706   1.363       .  A
N331        C708   1.357       .  A
C332        N707   1.357       .  A
C332        N333   1.354       .  A
N333        C334   1.355       .  A
C334        N335   1.358       .  A
C336        N337   1.363       .  A
C336        N341   1.359       .  A
C336        C357   1.463       .  S
N337        C338   1.361       .  A
C338        N339   1.356       .  A
N339        C340   1.354       .  A
C340        N341   1.356       .  A
C340        C367   1.458       .  S
O342       Zn348   2.034       .  S
C343        O547   1.273   1_545  A
C343        O356   1.275       .  A
O344        C357   1.277       .  A
O344       Cd351   2.085       .  S
O345        C363   1.276       .  A
O345       Cd354   2.081       .  S
O346        C736   1.272       .  A
O346       Cd350   2.057       .  S
O347        C358   1.271       .  A
O347      Cd1102   2.058       .  S
Zn348       O359   2.029       .  S
Zn348       O361   2.015       .  S
Zn348       O353   1.959       .  S
O349        C360   1.277   1_655  A
O349       Cd918   2.088       .  S
Cd350      O1099   2.058   1_455  S
Cd350       O917   1.992   1_455  S
Cd351      O1107   2.093       .  S
Cd351      O1492   2.080       .  S
Cd351       O353   2.010       .  S
O352        C362   1.273       .  A
O353       Cd914   1.992   1_556  S
O353       Cd730   2.003       .  S
Cd354       O913   2.088   1_556  S
Cd354       O729   2.003   1_545  S
O355        C362   1.276       .  A
O355      Cd1103   2.093   1_455  S
C357        O361   1.273       .  A
C358        C375   1.460       .  S
O359        C531   1.273   1_556  A
C360        O722   1.272   1_545  A
C363       C1070   1.475       .  S
C363       O1116   1.277       .  A
O364       C1115   1.277   1_455  A
O364      Cd1479   2.080   1_445  S
C365        N366   1.360       .  A
C365        N370   1.359       .  A
C365        C373   1.467       .  S
N366        C367   1.357       .  A
C367        N368   1.356       .  A
N368        C369   1.355       .  A
C369        N370   1.357       .  A
C371        N372   1.359       .  A
C371        N376   1.361       .  A
N372        C373   1.358       .  A
C373        N374   1.356       .  A
N374        C375   1.355       .  A
C375        N376   1.359       .  A
C377        N378   1.360       .  A
C377        N382   1.363       .  A
C377        C404   1.466       .  S
N378        C379   1.358       .  A
C379        N380   1.355       .  A
C379        C416   1.461       .  S
N380        C381   1.355       .  A
C381        N382   1.360       .  A
C381        C498   1.467       .  S
C383        N384   1.359       .  A
C383        N388   1.362       .  A
C383        C407   1.465       .  S
N384        C385   1.356       .  A
C385        N574   1.354   1_554  A
C385        C655   1.455   1_554  S
N386        C573   1.354       .  A
N386        C575   1.355       .  A
C387        N574   1.355   1_554  A
C387        N388   1.358       .  A
C387        C501   1.468       .  S
O389        C405   1.274       .  A
O389       Zn395   2.035       .  S
C390        C475   1.463       .  S
C390        O406   1.273       .  A
C390        O403   1.274       .  A
O391        C404   1.277       .  A
O391       Cd398   2.089       .  S
O392        C410   1.274       .  A
O392       Cd401   2.075       .  S
O393        C407   1.272       .  A
O393       Cd397   2.055       .  S
O394        C405   1.272       .  A
O394       Cd397   2.063       .  S
Zn395       O406   2.028       .  S
Zn395       O408   2.019       .  S
Zn395       O400   1.955       .  S
O396        C407   1.276       .  A
O396       Cd401   2.079       .  S
Cd397       O399   2.056       .  S
Cd397       O400   1.992       .  S
Cd398       O402   2.095       .  S
Cd398       O411   2.080       .  S
Cd398       O400   2.009       .  S
O399        C409   1.273       .  A
O400       Cd401   2.004       .  S
Cd401       O403   2.070       .  S
O402        C409   1.277       .  A
C404        O408   1.274       .  A
C405        C422   1.462       .  S
C409        C481   1.471       .  S
C410        C459   1.473       .  S
C410        O411   1.277       .  A
C412        N601   1.360   1_554  A
C412        N605   1.360   1_554  A
C412        C420   1.470       .  S
N413        C600   1.360       .  A
N413        C414   1.357       .  A
C414        N415   1.356       .  A
C414        C426   1.460       .  S
N415        C416   1.356       .  A
C416        N417   1.358       .  A
N417        C600   1.360       .  A
C418        N419   1.357       .  A
C418        N423   1.359       .  A
C418        C437   1.461       .  S
N419        C420   1.357       .  A
C420        N421   1.358       .  A
N421        C422   1.358       .  A
C422        N423   1.359       .  A
C424        N425   1.359       .  A
C424        N429   1.362       .  A
C424        C451   1.462       .  S
N425        C426   1.357       .  A
C426        N427   1.355       .  A
N427        C428   1.356       .  A
C428        N429   1.359       .  A
C428        C550   1.471       .  S
C430        N431   1.359       .  A
C430        C454   1.469       .  S
N431        C432   1.356       .  A
C432        N621   1.354   1_554  A
C432        C657   1.455   1_554  S
N433        C620   1.354       .  A
N433        C622   1.354       .  A
C434        N621   1.354   1_554  A
C434        C531   1.465       .  S
O436       Zn442   2.029       .  S
C437        O453   1.274       .  A
C437        O450   1.272       .  A
O438        C451   1.276       .  A
O438       Cd445   2.084       .  S
O439        C457   1.273       .  A
O439       Cd448   2.060       .  S
O440        C454   1.277       .  A
O440       Cd444   2.086       .  S
O441        C452   1.274       .  A
O441       Cd444   2.071       .  S
Zn442       O453   2.033       .  S
Zn442       O455   2.014       .  S
Zn442       O447   1.958       .  S
O443       Cd448   2.059       .  S
Cd444       O446   2.079       .  S
Cd445       O458   2.094       .  S
Cd445       O447   2.010       .  S
O446        C456   1.275       .  A
O447       Cd448   1.993       .  S
Cd448       O450   2.062       .  S
O449        C456   1.277       .  A
C451        O455   1.273       .  A
C452        C520   1.464       .  S
C456        C463   1.474       .  S
C457        C526   1.472       .  S
C457        O458   1.276       .  A
C459        N460   1.357       .  A
C459        N464   1.362       .  A
N460        C461   1.357       .  A
C461        N462   1.358       .  A
C461        C465   1.469       .  S
N462        C463   1.359       .  A
C463        N464   1.362       .  A
C465        N466   1.359       .  A
C465        N470   1.359       .  A
N466        C467   1.357       .  A
C467        N656   1.354       .  A
C467        C573   1.455       .  S
N468        C655   1.354   1_554  A
N468        C657   1.353   1_554  A
C469        N656   1.353       .  A
C469        N470   1.358       .  A
C469        C620   1.455       .  S
C471        N472   1.360       .  A
C471        N476   1.362       .  A
C471        C499   1.465       .  S
N472        C473   1.358       .  A
C473        N474   1.354       .  A
C473        C514   1.458       .  S
N474        C475   1.354       .  A
C475        N476   1.359       .  A
C477        N478   1.359       .  A
C477        N482   1.362       .  A
C477        C504   1.466       .  S
N478        C479   1.356       .  A
C479        N480   1.355       .  A
C479        C557   1.458       .  S
N480        C481   1.357       .  A
C481        N482   1.358       .  A
O483        C499   1.275       .  A
O483       Zn677   2.023   1_554  S
C484       C1262   1.464       .  S
C484       O1252   1.276       .  A
C484        O497   1.272       .  A
O485        C498   1.275       .  A
O485      Cd1244   2.072   1_455  S
O486        C504   1.272       .  A
O486       Cd495   2.057       .  S
O487        C501   1.276       .  A
O487       Cd491   2.090       .  S
O488       C1251   1.276       .  A
O488       Cd491   2.085       .  S
Zn489       O671   2.023       .  S
Zn489       O500   2.043       .  S
Zn489       O502   2.039       .  S
Zn489      O1246   1.955   1_455  S
O490        C689   1.272       .  A
O490       Cd495   2.052       .  S
Cd491       O493   2.074       .  S
Cd491       O682   2.010   1_554  S
Cd492      O1237   2.072       .  S
Cd492       O496   2.073       .  S
Cd492       O505   2.079       .  S
Cd492       O494   2.003       .  S
O493        C503   1.276       .  A
O494      Zn1241   1.955       .  S
O494       Cd679   2.010       .  S
O494       Cd495   1.993       .  S
Cd495       O497   2.062       .  S
O496        C691   1.274       .  A
C498        O502   1.275       .  A
C499       O1240   1.276   1_455  A
O500       C1236   1.276   1_455  A
C501        O678   1.272   1_554  A
C503        C559   1.470       .  S
C503        O684   1.274   1_554  A
C504        O505   1.276       .  A
C506        N507   1.360       .  A
C506        N511   1.362   1_455  A
C506       C1303   1.475   1_455  S
N507        C508   1.359       .  A
C508        N509   1.357       .  A
C508        C512   1.472       .  S
N509        C510   1.356       .  A
C510        N511   1.360   1_455  A
C510       C1236   1.464   1_455  S
C512        N513   1.360       .  A
C512        N517   1.359       .  A
N513        C514   1.358       .  A
C514        N515   1.355       .  A
N515        C516   1.354       .  A
C516        N517   1.358       .  A
C516        C522   1.458       .  S
C518        N523   1.360       .  A
C518        C548   1.469       .  S
C520        N521   1.354       .  A
N521        C522   1.355       .  A
C522        N523   1.358       .  A
C524        N525   1.363       .  A
C524        N529   1.359       .  A
C524        C545   1.463       .  S
N525        C526   1.361       .  A
C526        N527   1.356       .  A
N527        C528   1.354       .  A
C528        N529   1.356       .  A
C528        C555   1.458       .  S
O530        C734   1.275       .  A
O530       Zn536   2.034       .  S
C531        O544   1.275       .  A
O532        C545   1.277       .  A
O532       Cd539   2.085       .  S
O533        C551   1.276       .  A
O533       Cd542   2.081       .  S
O534       Cd538   2.057       .  S
O535        C546   1.271       .  A
O535      Cd1290   2.058       .  S
Zn536       O547   2.029       .  S
Zn536       O549   2.015       .  S
Zn536       O541   1.959       .  S
O537        C548   1.277   1_655  A
O537      Cd1482   2.088   1_554  S
Cd538      O1287   2.058   1_455  S
Cd538       O728   2.057   1_554  S
Cd538      O1481   1.992   1_454  S
Cd539      O1295   2.093       .  S
Cd539       O928   2.080   1_565  S
Cd539       O541   2.010       .  S
O540        C550   1.273       .  A
O540       Cd726   2.057       .  S
O541      Cd1478   1.992       .  S
Cd542      O1477   2.088       .  S
Cd542       O732   2.073       .  S
O543        C550   1.276       .  A
O543      Cd1291   2.093   1_455  S
O544       Cd730   2.073   1_554  S
C545        O549   1.273       .  A
C546        C563   1.460       .  S
C546        O718   1.275   1_554  A
C551       C1258   1.475       .  S
C551       O1304   1.277       .  A
O552       C1303   1.277   1_455  A
O552       Cd915   2.080   1_455  S
C553        N554   1.360       .  A
C553        N558   1.359       .  A
C553        C561   1.467       .  S
N554        C555   1.357       .  A
C555        N556   1.356       .  A
N556        C557   1.355       .  A
C557        N558   1.357       .  A
C559        N560   1.359       .  A
C559        N564   1.361       .  A
N560        C561   1.358       .  A
C561        N562   1.356       .  A
N562        C563   1.355       .  A
C563        N564   1.359       .  A
C565        N566   1.360       .  A
C565        N570   1.363       .  A
C565        C592   1.466       .  S
N566        C567   1.358       .  A
C567        N568   1.355       .  A
C567        C604   1.461       .  S
N568        C569   1.355       .  A
C569        N570   1.360       .  A
C569        C686   1.467       .  S
C571        N572   1.359       .  A
C571        N576   1.362       .  A
C571        C595   1.465       .  S
N572        C573   1.356       .  A
C575        N576   1.358       .  A
C575        C689   1.468       .  S
O577        C593   1.274       .  A
O577       Zn583   2.035       .  S
C578        C663   1.463       .  S
C578        O594   1.273       .  A
C578        O591   1.274       .  A
O579        C592   1.277       .  A
O579       Cd586   2.089       .  S
O580        C598   1.274       .  A
O580       Cd589   2.075       .  S
O581        C595   1.272       .  A
O581       Cd585   2.055       .  S
O582        C593   1.272       .  A
O582       Cd585   2.063       .  S
Zn583       O594   2.028       .  S
Zn583       O596   2.019       .  S
Zn583       O588   1.955       .  S
O584        C595   1.276       .  A
O584       Cd589   2.079       .  S
Cd585       O587   2.056       .  S
Cd585       O588   1.992       .  S
Cd586       O590   2.095       .  S
Cd586       O599   2.080       .  S
Cd586       O588   2.009       .  S
O587        C597   1.273       .  A
O588       Cd589   2.004       .  S
Cd589       O591   2.070       .  S
O590        C597   1.277       .  A
C592        O596   1.274       .  A
C593        C610   1.462       .  S
C597        C669   1.471       .  S
C598        C647   1.473       .  S
C598        O599   1.277       .  A
C600        C608   1.470       .  S
N601        C602   1.357       .  A
C602        N603   1.356       .  A
C602        C614   1.460       .  S
N603        C604   1.356       .  A
C604        N605   1.358       .  A
C606        N607   1.357       .  A
C606        N611   1.359       .  A
C606        C625   1.461       .  S
N607        C608   1.357       .  A
C608        N609   1.358       .  A
N609        C610   1.358       .  A
C610        N611   1.359       .  A
C612        N613   1.359       .  A
C612        N617   1.362       .  A
C612        C639   1.462       .  S
N613        C614   1.357       .  A
C614        N615   1.355       .  A
N615        C616   1.356       .  A
C616        N617   1.359       .  A
C616        C738   1.471       .  S
C618        N619   1.359       .  A
C618        C642   1.469       .  S
N619        C620   1.356       .  A
C622        C719   1.465       .  S
O624       Zn630   2.029       .  S
C625        O641   1.274       .  A
C625        O638   1.272       .  A
O626        C639   1.276       .  A
O626       Cd633   2.084       .  S
O627        C645   1.273       .  A
O627       Cd636   2.060       .  S
O628        C642   1.277       .  A
O628       Cd632   2.086       .  S
O629        C640   1.274       .  A
O629       Cd632   2.071       .  S
Zn630       O641   2.033       .  S
Zn630       O643   2.014       .  S
Zn630       O635   1.958       .  S
O631       Cd636   2.059       .  S
Cd632       O634   2.079       .  S
Cd633       O646   2.094       .  S
Cd633       O635   2.010       .  S
O634        C644   1.275       .  A
O635       Cd636   1.993       .  S
Cd636       O638   2.062       .  S
O637        C644   1.277       .  A
C639        O643   1.273       .  A
C640        C708   1.464       .  S
C644        C651   1.474       .  S
C645        C714   1.472       .  S
C645        O646   1.276       .  A
C647        N648   1.357       .  A
C647        N652   1.362       .  A
N648        C649   1.357       .  A
C649        N650   1.358       .  A
C649        C653   1.469       .  S
N650        C651   1.359       .  A
C651        N652   1.362       .  A
C653        N654   1.359       .  A
C653        N658   1.359       .  A
N654        C655   1.357       .  A
C657        N658   1.358       .  A
C659        N660   1.360       .  A
C659        N664   1.362       .  A
C659        C687   1.465       .  S
N660        C661   1.358       .  A
C661        N662   1.354       .  A
C661        C702   1.458       .  S
N662        C663   1.354       .  A
C663        N664   1.359       .  A
C665        N666   1.359       .  A
C665        N670   1.362       .  A
C665        C692   1.466       .  S
N666        C667   1.356       .  A
C667        N668   1.355       .  A
C667        C745   1.458       .  S
N668        C669   1.357       .  A
C669        N670   1.358       .  A
O671        C687   1.275       .  A
C672       C1450   1.464       .  S
C672       O1440   1.276       .  A
C672        O685   1.272       .  A
O673        C686   1.275       .  A
O673      Cd1432   2.072   1_455  S
O674        C692   1.272       .  A
O674       Cd683   2.057       .  S
O675        C689   1.276       .  A
O675       Cd679   2.090       .  S
O676       C1439   1.276       .  A
O676       Cd679   2.085       .  S
Zn677       O688   2.043       .  S
Zn677       O690   2.039       .  S
Zn677      O1434   1.955   1_455  S
O678       Cd683   2.052       .  S
Cd679       O681   2.074       .  S
Cd680      O1425   2.072       .  S
Cd680       O684   2.073       .  S
Cd680       O693   2.079       .  S
Cd680       O682   2.003       .  S
O681        C691   1.276       .  A
O682      Zn1429   1.955       .  S
O682       Cd683   1.993       .  S
Cd683       O685   2.062       .  S
C686        O690   1.275       .  A
C687       O1428   1.276   1_455  A
O688       C1424   1.276   1_455  A
C691        C747   1.470       .  S
C692        O693   1.276       .  A
C694        N695   1.360       .  A
C694        N699   1.362   1_455  A
C694       C1491   1.475   1_455  S
N695        C696   1.359       .  A
C696        N697   1.357       .  A
C696        C700   1.472       .  S
N697        C698   1.357       .  A
C698        N699   1.360   1_455  A
C698       C1424   1.464   1_455  S
C700        N701   1.360       .  A
C700        N705   1.359       .  A
N701        C702   1.358       .  A
C702        N703   1.355       .  A
N703        C704   1.354       .  A
C704        N705   1.358       .  A
C704        C710   1.458       .  S
C706        N711   1.360       .  A
C706        C736   1.469       .  S
C708        N709   1.354       .  A
N709        C710   1.355       .  A
C710        N711   1.358       .  A
C712        N713   1.363       .  A
C712        N717   1.359       .  A
C712        C733   1.463       .  S
N713        C714   1.361       .  A
C714        N715   1.356       .  A
N715        C716   1.354       .  A
C716        N717   1.356       .  A
C716        C743   1.458       .  S
O718       Zn724   2.034       .  S
C719        O732   1.275       .  A
O720        C733   1.277       .  A
O720       Cd727   2.085       .  S
O721        C739   1.276       .  A
O721       Cd730   2.081       .  S
O722       Cd726   2.057       .  S
O723        C734   1.271       .  A
O723      Cd1478   2.058       .  S
Zn724       O735   2.029       .  S
Zn724       O737   2.015       .  S
Zn724       O729   1.959       .  S
O725        C736   1.277   1_655  A
O725      Cd1294   2.088       .  S
Cd726      O1475   2.058   1_455  S
Cd726      O1293   1.992   1_455  S
Cd727      O1483   2.093       .  S
Cd727      O1116   2.080   1_565  S
Cd727       O729   2.010       .  S
O728        C738   1.273       .  A
O729      Cd1290   1.992   1_556  S
Cd730      O1289   2.088   1_556  S
O731        C738   1.276       .  A
O731      Cd1479   2.093   1_455  S
C733        O737   1.273       .  A
C734        C751   1.460       .  S
C739       C1446   1.475       .  S
C739       O1492   1.277       .  A
O740       C1491   1.277   1_455  A
O740      Cd1103   2.080   1_455  S
C741        N742   1.360       .  A
C741        N746   1.359       .  A
C741        C749   1.467       .  S
N742        C743   1.357       .  A
C743        N744   1.356       .  A
N744        C745   1.355       .  A
C745        N746   1.357       .  A
C747        N748   1.359       .  A
C747        N752   1.361       .  A
N748        C749   1.358       .  A
C749        N750   1.356       .  A
N750        C751   1.355       .  A
C751        N752   1.359       .  A
C753        N754   1.360       .  A
C753        N758   1.363       .  A
C753        C780   1.466       .  S
N754        C755   1.358       .  A
C755        N756   1.355       .  A
C755        C792   1.461       .  S
N756        C757   1.355       .  A
C757        N758   1.360       .  A
C757        C874   1.467       .  S
C759        N760   1.359       .  A
C759        N764   1.362       .  A
C759        C783   1.465       .  S
N760        C761   1.356       .  A
C761        N950   1.354   1_554  A
C761       C1031   1.455   1_554  S
N762        C949   1.354       .  A
N762        C951   1.355       .  A
C763        N950   1.355   1_554  A
C763        N764   1.358       .  A
C763        C877   1.468       .  S
O765        C781   1.274       .  A
O765       Zn771   2.035       .  S
C766        C851   1.463       .  S
C766        O782   1.273       .  A
C766        O779   1.274       .  A
O767        C780   1.277       .  A
O767       Cd774   2.089       .  S
O768        C786   1.274       .  A
O768       Cd777   2.075       .  S
O769        C783   1.272       .  A
O769       Cd773   2.055       .  S
O770        C781   1.272       .  A
O770       Cd773   2.063       .  S
Zn771       O782   2.028       .  S
Zn771       O784   2.019       .  S
Zn771       O776   1.955       .  S
O772        C783   1.276       .  A
O772       Cd777   2.079       .  S
Cd773       O775   2.056       .  S
Cd773       O776   1.992       .  S
Cd774       O778   2.095       .  S
Cd774       O787   2.080       .  S
Cd774       O776   2.009       .  S
O775        C785   1.273       .  A
O776       Cd777   2.004       .  S
Cd777       O779   2.070       .  S
O778        C785   1.277       .  A
C780        O784   1.274       .  A
C781        C798   1.462       .  S
C785        C857   1.471       .  S
C786        C835   1.473       .  S
C786        O787   1.277       .  A
C788        N977   1.360   1_554  A
C788        N981   1.360   1_554  A
C788        C796   1.470       .  S
N789        C976   1.360       .  A
N789        C790   1.357       .  A
C790        N791   1.356       .  A
C790        C802   1.460       .  S
N791        C792   1.356       .  A
C792        N793   1.358       .  A
N793        C976   1.360       .  A
C794        N795   1.357       .  A
C794        N799   1.359       .  A
C794        C813   1.461       .  S
N795        C796   1.357       .  A
C796        N797   1.358       .  A
N797        C798   1.358       .  A
C798        N799   1.359       .  A
C800        N801   1.359       .  A
C800        N805   1.362       .  A
C800        C827   1.462       .  S
N801        C802   1.357       .  A
C802        N803   1.355       .  A
N803        C804   1.356       .  A
C804        N805   1.359       .  A
C804        C926   1.471       .  S
C806        N807   1.359       .  A
C806       N1187   1.363       .  A
C806        C830   1.469       .  S
N807        C808   1.356       .  A
C808        N997   1.354   1_554  A
C808       C1033   1.455   1_554  S
N809        C996   1.354       .  A
N809        C998   1.354       .  A
C810        N997   1.354   1_554  A
C810       N1187   1.359       .  A
C810        C907   1.465       .  S
N811       C1182   1.363       .  A
N811       C1186   1.359       .  A
O812       C1204   1.273       .  A
O812       Zn818   2.029       .  S
C813        O829   1.274       .  A
C813        O826   1.272       .  A
O814        C827   1.276       .  A
O814       Cd821   2.084       .  S
O815        C833   1.273       .  A
O815       Cd824   2.060       .  S
O816        C830   1.277       .  A
O816       Cd820   2.086       .  S
O817        C828   1.274       .  A
O817       Cd820   2.071       .  S
Zn818       O829   2.033       .  S
Zn818       O831   2.014       .  S
Zn818       O823   1.958       .  S
O819       C1206   1.273       .  A
O819       Cd824   2.059       .  S
Cd820       O822   2.079       .  S
Cd820      O1199   2.003   1_545  S
Cd821      O1201   2.079       .  S
Cd821       O834   2.094       .  S
Cd821       O823   2.010       .  S
O822        C832   1.275       .  A
O823      Cd1196   2.003       .  S
O823       Cd824   1.993       .  S
Cd824       O826   2.062       .  S
O825        C832   1.277       .  A
O825      Cd1197   2.079   1_545  S
C827        O831   1.273       .  A
C828        C896   1.464       .  S
C828       O1188   1.273   1_545  A
C830       O1195   1.273   1_545  A
C832        C839   1.474       .  S
C833        C902   1.472       .  S
C833        O834   1.276       .  A
C835        N836   1.357       .  A
C835        N840   1.362       .  A
N836        C837   1.357       .  A
C837        N838   1.358       .  A
C837        C841   1.469       .  S
N838        C839   1.359       .  A
C839        N840   1.362       .  A
C841        N842   1.359       .  A
C841        N846   1.359       .  A
N842        C843   1.357       .  A
C843       N1032   1.354       .  A
C843        C949   1.455       .  S
N844       C1031   1.354   1_554  A
N844       C1033   1.353   1_554  A
C845       N1032   1.353       .  A
C845        N846   1.358       .  A
C845        C996   1.455       .  S
C847        N848   1.360       .  A
C847        N852   1.362       .  A
C847        C875   1.465       .  S
N848        C849   1.358       .  A
C849        N850   1.354       .  A
C849        C890   1.458       .  S
N850        C851   1.354       .  A
C851        N852   1.359       .  A
C853        N854   1.359       .  A
C853        N858   1.362       .  A
C853        C880   1.466       .  S
N854        C855   1.356       .  A
C855        N856   1.355       .  A
C855        C933   1.458       .  S
N856        C857   1.357       .  A
C857        N858   1.358       .  A
O859        C875   1.275       .  A
O859      Zn1053   2.023   1_554  S
C860        O873   1.272       .  A
O861        C874   1.275       .  A
O862        C880   1.272       .  A
O862       Cd871   2.057       .  S
O863        C877   1.276       .  A
O863       Cd867   2.090       .  S
O864       Cd867   2.085       .  S
Zn865      O1047   2.023       .  S
Zn865       O876   2.043       .  S
Zn865       O878   2.039       .  S
O866       C1065   1.272       .  A
O866       Cd871   2.052       .  S
Cd867       O869   2.074       .  S
Cd867      O1058   2.010   1_554  S
Cd868       O872   2.073       .  S
Cd868       O881   2.079       .  S
Cd868       O870   2.003       .  S
O869        C879   1.276       .  A
O870      Cd1055   2.010       .  S
O870       Cd871   1.993       .  S
Cd871       O873   2.062       .  S
O872       C1067   1.274       .  A
C874        O878   1.275       .  A
C877       O1054   1.272   1_554  A
C879        C935   1.470       .  S
C879       O1060   1.274   1_554  A
C880        O881   1.276       .  A
C882        N883   1.360       .  A
C882        N887   1.362       .  A
N883        C884   1.359       .  A
C884        N885   1.357       .  A
C884        C888   1.472       .  S
N885        C886   1.356       .  A
C886        N887   1.360       .  A
C888        N889   1.360       .  A
C888        N893   1.359       .  A
N889        C890   1.358       .  A
C890        N891   1.355       .  A
N891        C892   1.354       .  A
C892        N893   1.358       .  A
C892        C898   1.458       .  S
C894       N1271   1.363       .  A
C894        N899   1.360       .  A
C894        C924   1.469       .  S
N895       C1270   1.362       .  A
N895       C1272   1.357       .  A
C896       N1271   1.357       .  A
C896        N897   1.354       .  A
N897        C898   1.355       .  A
C898        N899   1.358       .  A
C900        N901   1.363       .  A
C900        N905   1.359       .  A
C900        C921   1.463       .  S
N901        C902   1.361       .  A
C902        N903   1.356       .  A
N903        C904   1.354       .  A
C904        N905   1.356       .  A
C904        C931   1.458       .  S
O906       C1110   1.275       .  A
O906       Zn912   2.034       .  S
C907       O1487   1.273   1_544  A
C907        O920   1.275       .  A
O908        C921   1.277       .  A
O908       Cd915   2.085       .  S
O909        C927   1.276       .  A
O909       Cd918   2.081       .  S
O910       C1300   1.272       .  A
O910       Cd914   2.057       .  S
O911        C922   1.271       .  A
Zn912       O923   2.029       .  S
Zn912       O925   2.015       .  S
Zn912       O917   1.959       .  S
O913        C924   1.277       .  A
Cd914      O1104   2.057   1_554  S
Cd915       O917   2.010       .  S
O916        C926   1.273       .  A
O916      Cd1102   2.057       .  S
O917      Cd1294   2.003       .  S
Cd918      O1108   2.073       .  S
Cd918      O1293   2.003   1_545  S
O919        C926   1.276       .  A
O920      Cd1106   2.073   1_554  S
C921        O925   1.273       .  A
C922        C939   1.460       .  S
C922       O1094   1.275   1_554  A
O923       C1471   1.273       .  A
C924       O1286   1.272   1_545  A
C929        N930   1.360       .  A
C929        N934   1.359       .  A
C929        C937   1.467       .  S
N930        C931   1.357       .  A
C931        N932   1.356       .  A
N932        C933   1.355       .  A
C933        N934   1.357       .  A
C935        N936   1.359       .  A
C935        N940   1.361       .  A
N936        C937   1.358       .  A
C937        N938   1.356       .  A
N938        C939   1.355       .  A
C939        N940   1.359       .  A
C941        N942   1.360       .  A
C941        N946   1.363       .  A
C941        C968   1.466       .  S
N942        C943   1.358       .  A
C943        N944   1.355       .  A
C943        C980   1.461       .  S
N944        C945   1.355       .  A
C945        N946   1.360       .  A
C945       C1062   1.467       .  S
C947        N948   1.359       .  A
C947        N952   1.362       .  A
C947        C971   1.465       .  S
N948        C949   1.356       .  A
C951        N952   1.358       .  A
C951       C1065   1.468       .  S
O953        C969   1.274       .  A
O953       Zn959   2.035       .  S
C954       C1039   1.463       .  S
C954        O970   1.273       .  A
C954        O967   1.274       .  A
O955        C968   1.277       .  A
O955       Cd962   2.089       .  S
O956        C974   1.274       .  A
O956       Cd965   2.075       .  S
O957        C971   1.272       .  A
O957       Cd961   2.055       .  S
O958        C969   1.272       .  A
O958       Cd961   2.063       .  S
Zn959       O970   2.028       .  S
Zn959       O972   2.019       .  S
Zn959       O964   1.955       .  S
O960        C971   1.276       .  A
O960       Cd965   2.079       .  S
Cd961       O963   2.056       .  S
Cd961       O964   1.992       .  S
Cd962       O966   2.095       .  S
Cd962       O975   2.080       .  S
Cd962       O964   2.009       .  S
O963        C973   1.273       .  A
O964       Cd965   2.004       .  S
Cd965       O967   2.070       .  S
O966        C973   1.277       .  A
C968        O972   1.274       .  A
C969        C986   1.462       .  S
C973       C1045   1.471       .  S
C974       C1023   1.473       .  S
C974        O975   1.277       .  A
C976        C984   1.470       .  S
N977        C978   1.357       .  A
C978        N979   1.356       .  A
C978        C990   1.460       .  S
N979        C980   1.356       .  A
C980        N981   1.358       .  A
C982        N983   1.357       .  A
C982        N987   1.359       .  A
C982       C1001   1.461       .  S
N983        C984   1.357       .  A
C984        N985   1.358       .  A
N985        C986   1.358       .  A
C986        N987   1.359       .  A
C988        N989   1.359       .  A
C988        N993   1.362       .  A
C988       C1015   1.462       .  S
N989        C990   1.357       .  A
C990        N991   1.355       .  A
N991        C992   1.356       .  A
C992        N993   1.359       .  A
C992       C1114   1.471       .  S
C994        N995   1.359       .  A
C994       N1375   1.363       .  A
C994       C1018   1.469       .  S
N995        C996   1.356       .  A
C998       N1375   1.359       .  A
C998       C1095   1.465       .  S
N999       C1370   1.363       .  A
N999       C1374   1.359       .  A
O1000      C1392   1.273       .  A
O1000     Zn1006   2.029       .  S
C1001      O1017   1.274       .  A
C1001      O1014   1.272       .  A
O1002      C1015   1.276       .  A
O1002     Cd1009   2.084       .  S
O1003      C1021   1.273       .  A
O1003     Cd1012   2.060       .  S
O1004      C1018   1.277       .  A
O1004     Cd1008   2.086       .  S
O1005      C1016   1.274       .  A
O1005     Cd1008   2.071       .  S
Zn1006     O1017   2.033       .  S
Zn1006     O1019   2.014       .  S
Zn1006     O1011   1.958       .  S
O1007      C1394   1.273       .  A
O1007     Cd1012   2.059       .  S
Cd1008     O1010   2.079       .  S
Cd1008     O1387   2.003   1_545  S
Cd1009     O1389   2.079       .  S
Cd1009     O1022   2.094       .  S
Cd1009     O1011   2.010       .  S
O1010      C1020   1.275       .  A
O1011     Cd1384   2.003       .  S
O1011     Cd1012   1.993       .  S
Cd1012     O1014   2.062       .  S
O1013      C1020   1.277       .  A
O1013     Cd1385   2.079   1_545  S
C1015      O1019   1.273       .  A
C1016      C1084   1.464       .  S
C1016      O1376   1.273   1_545  A
C1018      O1383   1.273   1_545  A
C1020      C1027   1.474       .  S
C1021      C1090   1.472       .  S
C1021      O1022   1.276       .  A
C1023      N1024   1.357       .  A
C1023      N1028   1.362       .  A
N1024      C1025   1.357       .  A
C1025      N1026   1.358       .  A
C1025      C1029   1.469       .  S
N1026      C1027   1.359       .  A
C1027      N1028   1.362       .  A
C1029      N1030   1.359       .  A
C1029      N1034   1.359       .  A
N1030      C1031   1.357       .  A
C1033      N1034   1.358       .  A
C1035      N1036   1.360       .  A
C1035      N1040   1.362       .  A
C1035      C1063   1.465       .  S
N1036      C1037   1.358       .  A
C1037      N1038   1.354       .  A
C1037      C1078   1.458       .  S
N1038      C1039   1.354       .  A
C1039      N1040   1.359       .  A
C1041      N1042   1.359       .  A
C1041      N1046   1.362       .  A
C1041      C1068   1.466       .  S
N1042      C1043   1.356       .  A
C1043      N1044   1.355       .  A
C1043      C1121   1.458       .  S
N1044      C1045   1.357       .  A
C1045      N1046   1.358       .  A
O1047      C1063   1.275       .  A
C1048      O1061   1.272       .  A
O1049      C1062   1.275       .  A
O1050      C1068   1.272       .  A
O1050     Cd1059   2.057       .  S
O1051      C1065   1.276       .  A
O1051     Cd1055   2.090       .  S
O1052     Cd1055   2.085       .  S
Zn1053     O1064   2.043       .  S
Zn1053     O1066   2.039       .  S
O1054     Cd1059   2.052       .  S
Cd1055     O1057   2.074       .  S
Cd1056     O1060   2.073       .  S
Cd1056     O1069   2.079       .  S
Cd1056     O1058   2.003       .  S
O1057      C1067   1.276       .  A
O1058     Cd1059   1.993       .  S
Cd1059     O1061   2.062       .  S
C1062      O1066   1.275       .  A
C1067      C1123   1.470       .  S
C1068      O1069   1.276       .  A
C1070      N1071   1.360       .  A
C1070      N1075   1.362       .  A
N1071      C1072   1.359       .  A
C1072      N1073   1.357       .  A
C1072      C1076   1.472       .  S
N1073      C1074   1.357       .  A
C1074      N1075   1.360       .  A
C1076      N1077   1.360       .  A
C1076      N1081   1.359       .  A
N1077      C1078   1.358       .  A
C1078      N1079   1.355       .  A
N1079      C1080   1.354       .  A
C1080      N1081   1.358       .  A
C1080      C1086   1.458       .  S
C1082      N1459   1.362       .  A
C1082      N1087   1.360       .  A
C1082      C1112   1.469       .  S
N1083      C1458   1.362       .  A
N1083      C1460   1.357       .  A
C1084      N1459   1.357       .  A
C1084      N1085   1.354       .  A
N1085      C1086   1.355       .  A
C1086      N1087   1.358       .  A
C1088      N1089   1.363       .  A
C1088      N1093   1.359       .  A
C1088      C1109   1.463       .  S
N1089      C1090   1.361       .  A
C1090      N1091   1.356       .  A
N1091      C1092   1.354       .  A
C1092      N1093   1.356       .  A
C1092      C1119   1.458       .  S
O1094     Zn1100   2.034       .  S
C1095      O1299   1.273   1_545  A
C1095      O1108   1.275       .  A
O1096      C1109   1.277       .  A
O1096     Cd1103   2.085       .  S
O1097      C1115   1.276       .  A
O1097     Cd1106   2.081       .  S
O1098      C1488   1.272       .  A
O1098     Cd1102   2.057       .  S
O1099      C1110   1.271       .  A
Zn1100     O1111   2.029       .  S
Zn1100     O1113   2.015       .  S
Zn1100     O1105   1.959       .  S
O1101      C1112   1.277       .  A
Cd1103     O1105   2.010       .  S
O1104      C1114   1.273       .  A
O1105     Cd1482   2.003       .  S
Cd1106     O1481   2.003   1_545  S
O1107      C1114   1.276       .  A
C1109      O1113   1.273       .  A
C1110      C1127   1.460       .  S
O1111      C1283   1.273   1_556  A
C1112      O1474   1.272   1_545  A
C1117      N1118   1.360       .  A
C1117      N1122   1.359       .  A
C1117      C1125   1.467       .  S
N1118      C1119   1.357       .  A
C1119      N1120   1.356       .  A
N1120      C1121   1.355       .  A
C1121      N1122   1.357       .  A
C1123      N1124   1.359       .  A
C1123      N1128   1.361       .  A
N1124      C1125   1.358       .  A
C1125      N1126   1.356       .  A
N1126      C1127   1.355       .  A
C1127      N1128   1.359       .  A
C1129      N1130   1.360       .  A
C1129      N1134   1.363       .  A
C1129      C1156   1.466       .  S
N1130      C1131   1.358       .  A
C1131      N1132   1.355       .  A
C1131      C1168   1.461       .  S
N1132      C1133   1.355       .  A
C1133      N1134   1.360       .  A
C1133      C1250   1.467       .  S
C1135      N1136   1.359       .  A
C1135      N1140   1.362       .  A
C1135      C1159   1.465       .  S
N1136      C1137   1.356       .  A
C1137      N1326   1.354   1_554  A
C1137      C1407   1.455   1_554  S
N1138      C1325   1.354       .  A
N1138      C1327   1.355       .  A
C1139      N1326   1.355   1_554  A
C1139      N1140   1.358       .  A
C1139      C1253   1.468       .  S
O1141      C1157   1.274       .  A
O1141     Zn1147   2.035       .  S
C1142      C1227   1.463       .  S
C1142      O1158   1.273       .  A
C1142      O1155   1.274       .  A
O1143      C1156   1.277       .  A
O1143     Cd1150   2.089       .  S
O1144      C1162   1.274       .  A
O1144     Cd1153   2.075       .  S
O1145      C1159   1.272       .  A
O1145     Cd1149   2.055       .  S
O1146      C1157   1.272       .  A
O1146     Cd1149   2.063       .  S
Zn1147     O1158   2.028       .  S
Zn1147     O1160   2.019       .  S
Zn1147     O1152   1.955       .  S
O1148      C1159   1.276       .  A
O1148     Cd1153   2.079       .  S
Cd1149     O1151   2.056       .  S
Cd1149     O1152   1.992       .  S
Cd1150     O1154   2.095       .  S
Cd1150     O1163   2.080       .  S
Cd1150     O1152   2.009       .  S
O1151      C1161   1.273       .  A
O1152     Cd1153   2.004       .  S
Cd1153     O1155   2.070       .  S
O1154      C1161   1.277       .  A
C1156      O1160   1.274       .  A
C1157      C1174   1.462       .  S
C1161      C1233   1.471       .  S
C1162      C1211   1.473       .  S
C1162      O1163   1.277       .  A
C1164      N1353   1.360   1_554  A
C1164      N1357   1.360   1_554  A
C1164      C1172   1.470       .  S
N1165      C1352   1.360       .  A
N1165      C1166   1.357       .  A
C1166      N1167   1.356       .  A
C1166      C1178   1.460       .  S
N1167      C1168   1.356       .  A
C1168      N1169   1.358       .  A
N1169      C1352   1.360       .  A
C1170      N1171   1.357       .  A
C1170      N1175   1.359       .  A
C1170      C1189   1.461       .  S
N1171      C1172   1.357       .  A
C1172      N1173   1.358       .  A
N1173      C1174   1.358       .  A
C1174      N1175   1.359       .  A
C1176      N1177   1.359       .  A
C1176      N1181   1.362       .  A
C1176      C1203   1.462       .  S
N1177      C1178   1.357       .  A
C1178      N1179   1.355       .  A
N1179      C1180   1.356       .  A
C1180      N1181   1.359       .  A
C1180      C1302   1.471       .  S
C1182      N1183   1.359       .  A
C1182      C1206   1.469       .  S
N1183      C1184   1.356       .  A
C1184      N1373   1.354   1_554  A
C1184      C1409   1.455   1_554  S
N1185      C1372   1.354       .  A
N1185      C1374   1.354       .  A
C1186      N1373   1.354   1_554  A
C1186      C1283   1.465       .  S
O1188     Zn1194   2.029       .  S
C1189      O1205   1.274       .  A
C1189      O1202   1.272       .  A
O1190      C1203   1.276       .  A
O1190     Cd1197   2.084       .  S
O1191      C1209   1.273       .  A
O1191     Cd1200   2.060       .  S
O1192      C1206   1.277       .  A
O1192     Cd1196   2.086       .  S
O1193      C1204   1.274       .  A
O1193     Cd1196   2.071       .  S
Zn1194     O1205   2.033       .  S
Zn1194     O1207   2.014       .  S
Zn1194     O1199   1.958       .  S
O1195     Cd1200   2.059       .  S
Cd1196     O1198   2.079       .  S
Cd1197     O1210   2.094       .  S
Cd1197     O1199   2.010       .  S
O1198      C1208   1.275       .  A
O1199     Cd1200   1.993       .  S
Cd1200     O1202   2.062       .  S
O1201      C1208   1.277       .  A
C1203      O1207   1.273       .  A
C1204      C1272   1.464       .  S
C1208      C1215   1.474       .  S
C1209      C1278   1.472       .  S
C1209      O1210   1.276       .  A
C1211      N1212   1.357       .  A
C1211      N1216   1.362       .  A
N1212      C1213   1.357       .  A
C1213      N1214   1.358       .  A
C1213      C1217   1.469       .  S
N1214      C1215   1.359       .  A
C1215      N1216   1.362       .  A
C1217      N1218   1.359       .  A
C1217      N1222   1.359       .  A
N1218      C1219   1.357       .  A
C1219      N1408   1.354       .  A
C1219      C1325   1.455       .  S
N1220      C1407   1.354   1_554  A
N1220      C1409   1.353   1_554  A
C1221      N1408   1.353       .  A
C1221      N1222   1.358       .  A
C1221      C1372   1.455       .  S
C1223      N1224   1.360       .  A
C1223      N1228   1.362       .  A
C1223      C1251   1.465       .  S
N1224      C1225   1.358       .  A
C1225      N1226   1.354       .  A
C1225      C1266   1.458       .  S
N1226      C1227   1.354       .  A
C1227      N1228   1.359       .  A
C1229      N1230   1.359       .  A
C1229      N1234   1.362       .  A
C1229      C1256   1.466       .  S
N1230      C1231   1.356       .  A
C1231      N1232   1.355       .  A
C1231      C1309   1.458       .  S
N1232      C1233   1.357       .  A
C1233      N1234   1.358       .  A
O1235      C1251   1.275       .  A
O1235     Zn1429   2.023   1_554  S
C1236      O1249   1.272       .  A
O1237      C1250   1.275       .  A
O1238      C1256   1.272       .  A
O1238     Cd1247   2.057       .  S
O1239      C1253   1.276       .  A
O1239     Cd1243   2.090       .  S
O1240     Cd1243   2.085       .  S
Zn1241     O1423   2.023       .  S
Zn1241     O1252   2.043       .  S
Zn1241     O1254   2.039       .  S
O1242      C1441   1.272       .  A
O1242     Cd1247   2.052       .  S
Cd1243     O1245   2.074       .  S
Cd1243     O1434   2.010   1_554  S
Cd1244     O1248   2.073       .  S
Cd1244     O1257   2.079       .  S
Cd1244     O1246   2.003       .  S
O1245      C1255   1.276       .  A
O1246     Cd1431   2.010       .  S
O1246     Cd1247   1.993       .  S
Cd1247     O1249   2.062       .  S
O1248      C1443   1.274       .  A
C1250      O1254   1.275       .  A
C1253      O1430   1.272   1_554  A
C1255      C1311   1.470       .  S
C1255      O1436   1.274   1_554  A
C1256      O1257   1.276       .  A
C1258      N1259   1.360       .  A
C1258      N1263   1.362       .  A
N1259      C1260   1.359       .  A
C1260      N1261   1.357       .  A
C1260      C1264   1.472       .  S
N1261      C1262   1.356       .  A
C1262      N1263   1.360       .  A
C1264      N1265   1.360       .  A
C1264      N1269   1.359       .  A
N1265      C1266   1.358       .  A
C1266      N1267   1.355       .  A
N1267      C1268   1.354       .  A
C1268      N1269   1.358       .  A
C1268      C1274   1.458       .  S
C1270      N1275   1.360       .  A
C1270      C1300   1.469       .  S
C1272      N1273   1.354       .  A
N1273      C1274   1.355       .  A
C1274      N1275   1.358       .  A
C1276      N1277   1.363       .  A
C1276      N1281   1.359       .  A
C1276      C1297   1.463       .  S
N1277      C1278   1.361       .  A
C1278      N1279   1.356       .  A
N1279      C1280   1.354       .  A
C1280      N1281   1.356       .  A
C1280      C1307   1.458       .  S
O1282      C1486   1.275       .  A
O1282     Zn1288   2.034       .  S
C1283      O1296   1.275       .  A
O1284      C1297   1.277       .  A
O1284     Cd1291   2.085       .  S
O1285      C1303   1.276       .  A
O1285     Cd1294   2.081       .  S
O1286     Cd1290   2.057       .  S
O1287      C1298   1.271       .  A
Zn1288     O1299   2.029       .  S
Zn1288     O1301   2.015       .  S
Zn1288     O1293   1.959       .  S
O1289      C1300   1.277       .  A
Cd1290     O1480   2.057   1_554  S
Cd1291     O1293   2.010       .  S
O1292      C1302   1.273       .  A
O1292     Cd1478   2.057       .  S
Cd1294     O1484   2.073       .  S
O1295      C1302   1.276       .  A
O1296     Cd1482   2.073   1_554  S
C1297      O1301   1.273       .  A
C1298      C1315   1.460       .  S
C1298      O1470   1.275   1_554  A
C1305      N1306   1.360       .  A
C1305      N1310   1.359       .  A
C1305      C1313   1.467       .  S
N1306      C1307   1.357       .  A
C1307      N1308   1.356       .  A
N1308      C1309   1.355       .  A
C1309      N1310   1.357       .  A
C1311      N1312   1.359       .  A
C1311      N1316   1.361       .  A
N1312      C1313   1.358       .  A
C1313      N1314   1.356       .  A
N1314      C1315   1.355       .  A
C1315      N1316   1.359       .  A
C1317      N1318   1.360       .  A
C1317      N1322   1.363       .  A
C1317      C1344   1.466       .  S
N1318      C1319   1.358       .  A
C1319      N1320   1.355       .  A
C1319      C1356   1.461       .  S
N1320      C1321   1.355       .  A
C1321      N1322   1.360       .  A
C1321      C1438   1.467       .  S
C1323      N1324   1.359       .  A
C1323      N1328   1.362       .  A
C1323      C1347   1.465       .  S
N1324      C1325   1.356       .  A
C1327      N1328   1.358       .  A
C1327      C1441   1.468       .  S
O1329      C1345   1.274       .  A
O1329     Zn1335   2.035       .  S
C1330      C1415   1.463       .  S
C1330      O1346   1.273       .  A
C1330      O1343   1.274       .  A
O1331      C1344   1.277       .  A
O1331     Cd1338   2.089       .  S
O1332      C1350   1.274       .  A
O1332     Cd1341   2.075       .  S
O1333      C1347   1.272       .  A
O1333     Cd1337   2.055       .  S
O1334      C1345   1.272       .  A
O1334     Cd1337   2.063       .  S
Zn1335     O1346   2.028       .  S
Zn1335     O1348   2.019       .  S
Zn1335     O1340   1.955       .  S
O1336      C1347   1.276       .  A
O1336     Cd1341   2.079       .  S
Cd1337     O1339   2.056       .  S
Cd1337     O1340   1.992       .  S
Cd1338     O1342   2.095       .  S
Cd1338     O1351   2.080       .  S
Cd1338     O1340   2.009       .  S
O1339      C1349   1.273       .  A
O1340     Cd1341   2.004       .  S
Cd1341     O1343   2.070       .  S
O1342      C1349   1.277       .  A
C1344      O1348   1.274       .  A
C1345      C1362   1.462       .  S
C1349      C1421   1.471       .  S
C1350      C1399   1.473       .  S
C1350      O1351   1.277       .  A
C1352      C1360   1.470       .  S
N1353      C1354   1.357       .  A
C1354      N1355   1.356       .  A
C1354      C1366   1.460       .  S
N1355      C1356   1.356       .  A
C1356      N1357   1.358       .  A
C1358      N1359   1.357       .  A
C1358      N1363   1.359       .  A
C1358      C1377   1.461       .  S
N1359      C1360   1.357       .  A
C1360      N1361   1.358       .  A
N1361      C1362   1.358       .  A
C1362      N1363   1.359       .  A
C1364      N1365   1.359       .  A
C1364      N1369   1.362       .  A
C1364      C1391   1.462       .  S
N1365      C1366   1.357       .  A
C1366      N1367   1.355       .  A
N1367      C1368   1.356       .  A
C1368      N1369   1.359       .  A
C1368      C1490   1.471       .  S
C1370      N1371   1.359       .  A
C1370      C1394   1.469       .  S
N1371      C1372   1.356       .  A
C1374      C1471   1.465       .  S
O1376     Zn1382   2.029       .  S
C1377      O1393   1.274       .  A
C1377      O1390   1.272       .  A
O1378      C1391   1.276       .  A
O1378     Cd1385   2.084       .  S
O1379      C1397   1.273       .  A
O1379     Cd1388   2.060       .  S
O1380      C1394   1.277       .  A
O1380     Cd1384   2.086       .  S
O1381      C1392   1.274       .  A
O1381     Cd1384   2.071       .  S
Zn1382     O1393   2.033       .  S
Zn1382     O1395   2.014       .  S
Zn1382     O1387   1.958       .  S
O1383     Cd1388   2.059       .  S
Cd1384     O1386   2.079       .  S
Cd1385     O1398   2.094       .  S
Cd1385     O1387   2.010       .  S
O1386      C1396   1.275       .  A
O1387     Cd1388   1.993       .  S
Cd1388     O1390   2.062       .  S
O1389      C1396   1.277       .  A
C1391      O1395   1.273       .  A
C1392      C1460   1.464       .  S
C1396      C1403   1.474       .  S
C1397      C1466   1.472       .  S
C1397      O1398   1.276       .  A
C1399      N1400   1.357       .  A
C1399      N1404   1.362       .  A
N1400      C1401   1.357       .  A
C1401      N1402   1.358       .  A
C1401      C1405   1.469       .  S
N1402      C1403   1.359       .  A
C1403      N1404   1.362       .  A
C1405      N1406   1.359       .  A
C1405      N1410   1.359       .  A
N1406      C1407   1.357       .  A
C1409      N1410   1.358       .  A
C1411      N1412   1.360       .  A
C1411      N1416   1.362       .  A
C1411      C1439   1.465       .  S
N1412      C1413   1.358       .  A
C1413      N1414   1.354       .  A
C1413      C1454   1.458       .  S
N1414      C1415   1.354       .  A
C1415      N1416   1.359       .  A
C1417      N1418   1.359       .  A
C1417      N1422   1.362       .  A
C1417      C1444   1.466       .  S
N1418      C1419   1.356       .  A
C1419      N1420   1.355       .  A
C1419      C1497   1.458       .  S
N1420      C1421   1.357       .  A
C1421      N1422   1.358       .  A
O1423      C1439   1.275       .  A
C1424      O1437   1.272       .  A
O1425      C1438   1.275       .  A
O1426      C1444   1.272       .  A
O1426     Cd1435   2.057       .  S
O1427      C1441   1.276       .  A
O1427     Cd1431   2.090       .  S
O1428     Cd1431   2.085       .  S
Zn1429     O1440   2.043       .  S
Zn1429     O1442   2.039       .  S
O1430     Cd1435   2.052       .  S
Cd1431     O1433   2.074       .  S
Cd1432     O1436   2.073       .  S
Cd1432     O1445   2.079       .  S
Cd1432     O1434   2.003       .  S
O1433      C1443   1.276       .  A
O1434     Cd1435   1.993       .  S
Cd1435     O1437   2.062       .  S
C1438      O1442   1.275       .  A
C1443      C1499   1.470       .  S
C1444      O1445   1.276       .  A
C1446      N1447   1.360       .  A
C1446      N1451   1.362       .  A
N1447      C1448   1.359       .  A
C1448      N1449   1.357       .  A
C1448      C1452   1.472       .  S
N1449      C1450   1.357       .  A
C1450      N1451   1.360       .  A
C1452      N1453   1.360       .  A
C1452      N1457   1.359       .  A
N1453      C1454   1.358       .  A
C1454      N1455   1.355       .  A
N1455      C1456   1.354       .  A
C1456      N1457   1.358       .  A
C1456      C1462   1.458       .  S
C1458      N1463   1.360       .  A
C1458      C1488   1.469       .  S
C1460      N1461   1.354       .  A
N1461      C1462   1.355       .  A
C1462      N1463   1.358       .  A
C1464      N1465   1.363       .  A
C1464      N1469   1.359       .  A
C1464      C1485   1.463       .  S
N1465      C1466   1.361       .  A
C1466      N1467   1.356       .  A
N1467      C1468   1.354       .  A
C1468      N1469   1.356       .  A
C1468      C1495   1.458       .  S
O1470     Zn1476   2.034       .  S
C1471      O1484   1.275       .  A
O1472      C1485   1.277       .  A
O1472     Cd1479   2.085       .  S
O1473      C1491   1.276       .  A
O1473     Cd1482   2.081       .  S
O1474     Cd1478   2.057       .  S
O1475      C1486   1.271       .  A
Zn1476     O1487   2.029       .  S
Zn1476     O1489   2.015       .  S
Zn1476     O1481   1.959       .  S
O1477      C1488   1.277       .  A
Cd1479     O1481   2.010       .  S
O1480      C1490   1.273       .  A
O1483      C1490   1.276       .  A
C1485      O1489   1.273       .  A
C1486      C1503   1.460       .  S
C1493      N1494   1.360       .  A
C1493      N1498   1.359       .  A
C1493      C1501   1.467       .  S
N1494      C1495   1.357       .  A
C1495      N1496   1.356       .  A
N1496      C1497   1.355       .  A
C1497      N1498   1.357       .  A
C1499      N1500   1.359       .  A
C1499      N1504   1.361       .  A
N1500      C1501   1.358       .  A
C1501      N1502   1.356       .  A
N1502      C1503   1.355       .  A
C1503      N1504   1.359       .  A
