geometry optimzed in LAMMPS
_audit_creation_date              2020-11-30 
_audit_creation_method            'lammps2cif' 
_symmetry_space_group_name_H-M    'P1' 
_symmetry_Int_Tables_number       1 
_symmetry_cell_setting            triclinic 
loop_ 
_symmetry_equiv_pos_as_xyz 
  x,y,z 
_cell_length_a                    30.65102648 
_cell_length_b                    30.64684367363178 
_cell_length_c                    30.703401167026087 
_cell_angle_alpha                 89.98780661250326 
_cell_angle_beta                  90.00606056884112 
_cell_angle_gamma                 90.00170891745665 
loop_ 
_atom_site_label 
_atom_site_type_symbol 
_atom_site_fract_x 
_atom_site_fract_y 
_atom_site_fract_z 
_atom_site_charge 
C1          C  0.41068040  0.40480892  0.10152265     0.44700
N2          N  0.42541983  0.44655932  0.04809227     0.03600
C3          C  0.61152874  0.44620530  0.42158717    -0.04300
H4          H  0.63946484  0.46793228  0.08767120     0.09000
C5          C  0.55223623  0.60829379  0.07897771    -0.04700
Co6        Co  0.50580551  0.41839607  0.00135009     0.74200
N7          N  0.58264326  0.45429958  0.04838291    -0.23900
Co8        Co  0.58145838  0.50200579  0.50053722     0.74100
C9          C  0.59199542  0.59351008  0.10003041     0.44800
N10         N  0.44952325  0.57489844  0.04660261     0.03200
N11         N  0.57783223  0.55066144  0.04734831     0.03300
N12         N  0.56153667  0.39172024  0.42344437    -0.44700
H13         H  0.47060806  0.36152180  0.08885444     0.09000
N14         N  0.55373218  0.42241070  0.04882637     0.03600
N15         N  0.57825483  0.54958689  0.45258025     0.03300
C16         C  0.59320298  0.59166091  0.39944338     0.44900
N17         N  0.42065449  0.54295727  0.04679144    -0.23300
C18         C  0.45122017  0.38754483  0.42192839    -0.04200
N19         N  0.39621963  0.43960122  0.07903382    -0.44400
N20         N  0.60758871  0.55674696  0.42180466    -0.44600
C21         C  0.41137786  0.40223279  0.40095548     0.44700
N22         N  0.55412879  0.42115076  0.45407573     0.03500
N23         N  0.42096582  0.54183674  0.45227860    -0.23300
N24         N  0.45734776  0.41768489  0.04847906    -0.23800
N25         N  0.44987356  0.57373384  0.45185861     0.03200
H26         H  0.36392435  0.52843570  0.41323305     0.09100
H27         H  0.53323693  0.63487748  0.41216721     0.09100
N28         N  0.58299037  0.45310327  0.45386071    -0.23900
N29         N  0.54592382  0.57955560  0.04676959    -0.23500
N30         N  0.42579498  0.44538253  0.45333286     0.03500
C31         C  0.59623192  0.40828663  0.10181100     0.44900
C32         C  0.39220647  0.54975174  0.07916330    -0.04700
N33         N  0.54632075  0.57845820  0.45223062    -0.23500
H34         H  0.53220817  0.63652522  0.08583102     0.09100
N35         N  0.56112178  0.39358030  0.08000774    -0.44700
H36         H  0.36409824  0.52977113  0.08663646     0.09100
C37         C  0.40711391  0.58812960  0.39913465     0.44800
C38         C  0.45069454  0.38964150  0.08123534    -0.04200
Co39       Co  0.42218501  0.49408756  0.00010528     0.73800
N40         N  0.44222998  0.60421466  0.07736717    -0.44400
C41         C  0.59669521  0.40600032  0.40140874     0.45000
N42         N  0.39682697  0.43765488  0.42236141    -0.44400
Co43       Co  0.49783032  0.57768733  0.49933638     0.73900
C44         C  0.55308672  0.60667593  0.41964920    -0.04700
C45         C  0.61115075  0.44802491  0.08079984    -0.04300
N46         N  0.45767974  0.41645973  0.45395206    -0.23800
N47         N  0.60666748  0.55822483  0.07848574    -0.44600
H48         H  0.63969124  0.46613236  0.41417475     0.09100
C49         C  0.39231537  0.54826508  0.42001292    -0.04700
Cl50       Cl  0.50181935  0.49804381  0.00031078    -0.47700
C51         C  0.40713180  0.58986234  0.09944327     0.44800
H52         H  0.47115715  0.35921558  0.41521097     0.09000
N53         N  0.44232452  0.60272461  0.42086003    -0.44400
C54         C  0.59843320  0.90407934  0.10003891     0.44700
N55         N  0.57810903  0.95072497  0.05198897     0.03600
C56         C  0.38851547  0.07574946  0.05486886    -0.04300
H57         H  0.35751126  0.91966737  0.03629616     0.09000
C58         C  0.44361563  0.92401251  0.38626696    -0.04700
Co59       Co  0.49768777  0.99893115  0.07985964     0.74200
N60         N  0.41907776  0.95256161  0.04542594    -0.23900
Co61       Co  0.42104692  0.99968559  0.99636896     0.74100
C62         C  0.40132730  0.90634390  0.39917320     0.44800
N63         N  0.55293413  0.95091628  0.42204083     0.03200
N64         N  0.42269960  0.95238063  0.44734855     0.03300
N65         N  0.43815782  0.07398204  0.10928248    -0.44700
H66         H  0.53883144  0.91859630  0.14319570     0.09000
N67         N  0.44805068  0.95200335  0.07730986     0.03600
N68         N  0.42375283  0.04700827  0.44745827     0.03300
C69         C  0.40334903  0.09358687  0.39938150     0.44900
N70         N  0.58188716  0.95092430  0.45394829    -0.23300
C71         C  0.55830626  0.07373559  0.11314781    -0.04200
N72         N  0.61010820  0.92355951  0.06240875    -0.44400
N73         N  0.39171270  0.07411546  0.43702416    -0.44600
C74         C  0.60062309  0.09135707  0.10024798     0.44700
N75         N  0.44891161  0.04682501  0.07737767     0.03500
N76         N  0.58282616  0.04512148  0.45399347    -0.23300
N77         N  0.54663058  0.95132422  0.08140246    -0.23800
N78         N  0.55386915  0.04571677  0.42209652     0.03200
H79         H  0.64456758  0.07769063  0.46302786     0.09100
H80         H  0.46294667  0.07910636  0.35620832     0.09100
N81         N  0.41994529  0.04678239  0.04548279    -0.23900
N82         N  0.45422395  0.95228683  0.41797031    -0.23500
N83         N  0.57917540  0.04536396  0.05205403     0.03500
C84         C  0.39957113  0.90525953  0.09657170     0.44900
C85         C  0.61329079  0.92192868  0.44456575    -0.04700
N86         N  0.45523217  0.04643690  0.41804136    -0.23500
H87         H  0.46130746  0.91953142  0.35611527     0.09100
N88         N  0.43705338  0.92476312  0.10905562    -0.44700
H89         H  0.64307655  0.91730607  0.46289231     0.09100
C90         C  0.60259750  0.09216192  0.40272005     0.44800
C91         C  0.55659916  0.92273402  0.11303722    -0.04200
Co92       Co  0.58081522  0.99803010  0.00305863     0.73800
N93         N  0.56367281  0.92375787  0.39013346    -0.44400
C94         C  0.40090713  0.09401659  0.09688249     0.45000
N95         N  0.61184188  0.07169446  0.06257673    -0.44400
Co96       Co  0.50418541  0.99883073  0.41955830     0.73900
C97         C  0.44521229  0.07499005  0.38638929    -0.04700
C98         C  0.38731361  0.92391720  0.05468324    -0.04300
N99         N  0.54765273  0.04548573  0.08143430    -0.23800
N100        N  0.39006797  0.92600146  0.43683536    -0.44600
H101        H  0.35872249  0.08034542  0.03654694     0.09100
C102        C  0.61472235  0.07358969  0.44467608    -0.04700
Cl103      Cl  0.50093358  0.99887475  0.99970918    -0.47700
C104        C  0.60089781  0.90368299  0.40254163     0.44800
H105        H  0.54064321  0.07819956  0.14331875     0.09000
N106        N  0.56503585  0.07278688  0.39026319    -0.44400
C107        C  0.90594384  0.40093600  0.09994994     0.44700
N108        N  0.95243763  0.42154452  0.05185426     0.03600
C109        C  0.07795485  0.61080008  0.05492911    -0.04300
H110        H  0.92233003  0.64275706  0.03617580     0.09000
C111        C  0.92630449  0.55589016  0.38607408    -0.04700
Co112      Co  0.00049501  0.50203824  0.07983433     0.74200
N113        N  0.95450186  0.58079300  0.04521140    -0.23900
Co114      Co  0.00176886  0.57864802  0.99629447     0.74100
C115        C  0.90847474  0.59810588  0.39898242     0.44800
N116        N  0.95320745  0.44678295  0.42188716     0.03200
N117        N  0.95461526  0.57694714  0.44714071     0.03300
N118        N  0.07575636  0.56118149  0.10937167    -0.44700
H119        H  0.92023784  0.46060043  0.14310644     0.09000
N120        N  0.95368688  0.55181504  0.07709486     0.03600
N121        N  0.04924285  0.57593728  0.44751870     0.03300
C122        C  0.09582158  0.59644888  0.39947508     0.44900
N123        N  0.95302052  0.41784771  0.45381508    -0.23300
C124        C  0.07539317  0.44169140  0.11330092    -0.04200
N125        N  0.92547272  0.38938380  0.06231536    -0.44400
N126        N  0.07627927  0.60804838  0.43708817    -0.44600
C127        C  0.09327383  0.39950018  0.10040316     0.44700
N128        N  0.04848661  0.55068608  0.07748156     0.03500
N129        N  0.04719792  0.41674506  0.45417968    -0.23300
N130        N  0.95287677  0.45305095  0.08124706    -0.23800
N131        N  0.04797973  0.44571608  0.42228865     0.03200
H132        H  0.07945029  0.35482636  0.46323059     0.09100
H133        H  0.08150009  0.53679198  0.35631925     0.09100
N134        N  0.04870509  0.57962712  0.04555941    -0.23900
N135        N  0.95462864  0.54541007  0.41777635    -0.23500
N136        N  0.04706722  0.42055870  0.05226535     0.03500
C137        C  0.90749092  0.60082388  0.09642902     0.44900
C138        C  0.92393361  0.38655204  0.44437586    -0.04700
N139        N  0.04877972  0.54443258  0.41812608    -0.23500
H140        H  0.92181726  0.53812478  0.35596488     0.09100
N141        N  0.92663155  0.56312918  0.10888308    -0.44700
H142        H  0.91913029  0.35680075  0.46271970     0.09100
C143        C  0.09423849  0.39677425  0.40297584     0.44800
C144        C  0.92436505  0.44291123  0.11290274    -0.04200
Co145      Co  0.99992822  0.41885376  0.00309235     0.73800
N146        N  0.92610012  0.43613639  0.38990980    -0.44400
C147        C  0.09611678  0.59823943  0.09694760     0.45000
N148        N  0.07363842  0.38808068  0.06277202    -0.44400
Co149      Co  0.00116115  0.49546467  0.41954332     0.73900
C150        C  0.07734136  0.55451319  0.38650009    -0.04700
C151        C  0.92620085  0.61285718  0.05450057    -0.04300
N152        N  0.04703060  0.45210731  0.08161526    -0.23800
N153        N  0.92810155  0.60946681  0.43663140    -0.44600
H154        H  0.08289656  0.64050067  0.03654013     0.09100
C155        C  0.07554031  0.38471762  0.44490054    -0.04700
Cl156      Cl  0.00083262  0.49874979  0.99968970    -0.47700
C157        C  0.90585640  0.39900053  0.40229508     0.44800
H158        H  0.07990293  0.45950010  0.14338105     0.09000
N159        N  0.07505391  0.43443728  0.39050801    -0.44400
C160        C  0.25204276  0.25072876  0.20775187     0.47700
H161        H  0.25247013  0.25142525  0.17153182    -0.01400
C162        C  0.25172452  0.24977013  0.29248234     0.47700
H163        H  0.25187778  0.24961918  0.32871202    -0.01400
C164        C  0.28387453  0.28313776  0.22840854    -0.15100
C165        C  0.20778464  0.26328797  0.22771800    -0.14800
C166        C  0.26577902  0.20661244  0.22730562    -0.15200
C167        C  0.28375154  0.28258821  0.27281529    -0.15200
C168        C  0.20763172  0.26284448  0.27246435    -0.14700
C169        C  0.26556934  0.20610537  0.27205189    -0.15100
C170        C  0.75046656  0.24856856  0.20771035     0.47700
H171        H  0.75022579  0.24875828  0.17148204    -0.01400
C172        C  0.75036370  0.24884166  0.29243602     0.47700
H173        H  0.75007984  0.24921485  0.32866326    -0.01400
C174        C  0.71773726  0.28046407  0.22776532    -0.15100
C175        C  0.73775082  0.20440162  0.22781608    -0.14800
C176        C  0.79428796  0.26256868  0.22768793    -0.15200
C177        C  0.71763730  0.28058433  0.27217933    -0.15200
C178        C  0.73768353  0.20456623  0.27256982    -0.14700
C179        C  0.79421397  0.26275939  0.27243499    -0.15100
C180        C  0.25356061  0.74669899  0.20742002     0.47700
H181        H  0.25425734  0.74593546  0.17120467    -0.01400
C182        C  0.25256590  0.74781811  0.29214411     0.47700
H183        H  0.25241613  0.74799760  0.32837217    -0.01400
C184        C  0.28609932  0.71520439  0.22837076    -0.15100
C185        C  0.26594616  0.79119276  0.22696670    -0.14800
C186        C  0.20950569  0.73297584  0.22708473    -0.15600
C187        C  0.28554253  0.71575909  0.27277716    -0.15200
C188        C  0.26544068  0.79180053  0.27171271    -0.14700
C189        C  0.20896579  0.73358427  0.27182285    -0.15100
C190        C  0.74994499  0.74750742  0.20742170     0.47700
H191        H  0.74941173  0.74724584  0.17119623    -0.01400
C192        C  0.75047563  0.74747085  0.29215329     0.47700
H193        H  0.75043419  0.74718945  0.32838131    -0.01400
C194        C  0.71833065  0.71470021  0.22778955    -0.15100
C195        C  0.79431656  0.73490701  0.22711617    -0.14800
C196        C  0.73606880  0.79131638  0.22750524    -0.15200
C197        C  0.71864480  0.71463571  0.27220040    -0.15200
C198        C  0.79460433  0.73490833  0.27187277    -0.14700
C199        C  0.73626504  0.79128657  0.27224995    -0.15100
C200        C  0.17953107  0.70690520  0.20125484    -0.16300
C201        C  0.15879477  0.68233798  0.17837436     0.07800
C202        C  0.13721025  0.65223403  0.15061942     0.09600
C203        C  0.11916359  0.62684169  0.12639281    -0.17200
C204        C  0.11824413  0.62697048  0.37146520    -0.16300
C205        C  0.13592623  0.65323488  0.34788283     0.07800
C206        C  0.15744730  0.68367540  0.32042021     0.09600
C207        C  0.17844246  0.70808207  0.29759076    -0.17200
C208        C  0.11662434  0.36759109  0.37360088    -0.16300
C209        C  0.13430170  0.34200445  0.34931655     0.07800
C210        C  0.15582307  0.31202816  0.32139471     0.09600
C211        C  0.17688707  0.28790949  0.29835454    -0.17200
C212        C  0.11584575  0.36898816  0.12828120    -0.16300
C213        C  0.13379385  0.34289023  0.15183477     0.07800
C214        C  0.15567971  0.31269868  0.17926335     0.09600
C215        C  0.17697128  0.28850532  0.20203395    -0.17200
C216        C  0.88374291  0.37030426  0.12802603    -0.16300
C217        C  0.86630418  0.34387234  0.15160887     0.07800
C218        C  0.84511929  0.31315591  0.17903655     0.09600
C219        C  0.82443797  0.28846160  0.20185046    -0.17200
C220        C  0.88332362  0.37013010  0.37273188    -0.16300
C221        C  0.86573744  0.34442623  0.34850634     0.07800
C222        C  0.84462369  0.31392324  0.32084476     0.09600
C223        C  0.82413350  0.28905137  0.29808510    -0.17200
C224        C  0.88613104  0.62874372  0.37106330    -0.16300
C225        C  0.86840666  0.65500817  0.34752804     0.07800
C226        C  0.84674712  0.68539969  0.32014568     0.09600
C227        C  0.82553250  0.70970762  0.29742903    -0.17200
C228        C  0.88510804  0.63002763  0.12580698    -0.16300
C229        C  0.86743212  0.65562114  0.15009818     0.07800
C230        C  0.84593523  0.68560577  0.17805186     0.09600
C231        C  0.82493632  0.70975079  0.20113806    -0.17200
C232        C  0.63174989  0.11452512  0.37332040    -0.16300
C233        C  0.65747259  0.13207455  0.34909814     0.07800
C234        C  0.68774752  0.15331268  0.32130125     0.09600
C235        C  0.71219870  0.17409436  0.29836286    -0.17200
C236        C  0.71253875  0.17356856  0.20211913    -0.16300
C237        C  0.68823943  0.15241591  0.17932064     0.07800
C238        C  0.65781238  0.13089035  0.15184533     0.09600
C239        C  0.63145558  0.11337776  0.12824029    -0.17200
C240        C  0.29170385  0.17664078  0.20131082    -0.16300
C241        C  0.31625660  0.15596243  0.17835594     0.07800
C242        C  0.34647129  0.13454282  0.15057706     0.09600
C243        C  0.37204237  0.11672533  0.12635803    -0.17200
C244        C  0.29130564  0.17562236  0.29760481    -0.16300
C245        C  0.31590669  0.15476665  0.32033209     0.07800
C246        C  0.34651312  0.13346353  0.34774159     0.09600
C247        C  0.37284660  0.11592842  0.37133093    -0.17200
C248        C  0.71020652  0.82158480  0.20180647    -0.16300
C249        C  0.68561615  0.84241684  0.17903570     0.07800
C250        C  0.65508993  0.86384169  0.15161685     0.09600
C251        C  0.62884668  0.88154138  0.12804169    -0.17200
C252        C  0.62978292  0.88103017  0.37304643    -0.16300
C253        C  0.65539278  0.86328842  0.34881451     0.07800
C254        C  0.68567608  0.84196083  0.32104189     0.09600
C255        C  0.71029300  0.82131554  0.29812738    -0.17200
C256        C  0.37060451  0.88410256  0.37124214    -0.16300
C257        C  0.34441715  0.86633886  0.34764098     0.07800
C258        C  0.31426427  0.84446735  0.32014491     0.09600
C259        C  0.29025104  0.82299972  0.29734326    -0.17200
C260        C  0.29121347  0.82172876  0.20102439    -0.16300
C261        C  0.31537789  0.84274598  0.17798839     0.07800
C262        C  0.34527175  0.86442455  0.15010667     0.09600
C263        C  0.37068814  0.88240589  0.12587092    -0.17200
C264        C  0.31268912  0.68840923  0.29925065    -0.16300
C265        C  0.33523488  0.66490587  0.32086254     0.07800
C266        C  0.36116588  0.63724646  0.34634899     0.09600
C267        C  0.38269447  0.61413324  0.36938223    -0.17200
C268        C  0.31414488  0.68754005  0.20311986    -0.16300
C269        C  0.33711708  0.66439448  0.18153962     0.07800
C270        C  0.36296602  0.63760547  0.15500977     0.09600
C271        C  0.38388460  0.61528796  0.13064507    -0.17200
C272        C  0.69161408  0.68668242  0.29821658    -0.16300
C273        C  0.66872041  0.66345864  0.31979663     0.07800
C274        C  0.64185703  0.63701395  0.34565417     0.09600
C275        C  0.61919886  0.61549315  0.36916852    -0.17200
C276        C  0.61735072  0.61739168  0.13075694    -0.16300
C277        C  0.63994881  0.63858415  0.15459210     0.07800
C278        C  0.66722008  0.66439858  0.18060667     0.09600
C279        C  0.69067131  0.68710798  0.20210187    -0.17200
C280        C  0.68988449  0.30804982  0.29799085    -0.16300
C281        C  0.66704749  0.33111696  0.31981411     0.07800
C282        C  0.64120046  0.35793445  0.34634516     0.09600
C283        C  0.62016703  0.38036624  0.37052207    -0.17200
C284        C  0.69039471  0.30810476  0.20184208    -0.16300
C285        C  0.66778220  0.33175538  0.18048668     0.07800
C286        C  0.64188020  0.35944860  0.15504691     0.09600
C287        C  0.62045217  0.38248254  0.13186404    -0.17200
C288        C  0.31156069  0.30950661  0.29906588    -0.16300
C289        C  0.33527627  0.33169206  0.32082550     0.07800
C290        C  0.36292259  0.35708276  0.34687555     0.09600
C291        C  0.38580329  0.37816679  0.37054496    -0.17200
C292        C  0.38485115  0.38129386  0.13216039    -0.16300
C293        C  0.36209960  0.36009836  0.15586235     0.07800
C294        C  0.33487275  0.33401415  0.18167794     0.09600
C295        C  0.31151711  0.31100271  0.20297207    -0.17200
C296        C  0.41068028  0.40480890  0.60152256     0.44700
N297        N  0.42541977  0.44655934  0.54809226     0.03600
C298        C  0.61152888  0.44620533  0.92158720    -0.04300
H299        H  0.63946480  0.46793237  0.58767112     0.09000
C300        C  0.55223629  0.60829382  0.57897770    -0.04700
Co301      Co  0.50580547  0.41839608  0.50135011     0.74200
N302        N  0.58264325  0.45429957  0.54838288    -0.23900
Co303      Co  0.58145848  0.50200584  0.00053724     0.74100
C304        C  0.59199541  0.59351003  0.60003039     0.44800
N305        N  0.44952318  0.57489843  0.54660258     0.03200
N306        N  0.57783214  0.55066138  0.54734831     0.03300
N307        N  0.56153666  0.39172035  0.92344428    -0.44700
H308        H  0.47060793  0.36152179  0.58885446     0.09000
N309        N  0.55373216  0.42241069  0.54882640     0.03600
N310        N  0.57825491  0.54958694  0.95258023     0.03300
C311        C  0.59320297  0.59166098  0.89944339     0.44900
N312        N  0.42065448  0.54295719  0.54679143    -0.23300
C313        C  0.45122002  0.38754491  0.92192840    -0.04200
N314        N  0.39621950  0.43960124  0.57903378    -0.44400
N315        N  0.60758876  0.55674702  0.92180461    -0.44600
C316        C  0.41137773  0.40223289  0.90095547     0.44700
N317        N  0.55412887  0.42115082  0.95407573     0.03500
N318        N  0.42096582  0.54183683  0.95227869    -0.23300
N319        N  0.45734766  0.41768490  0.54847906    -0.23800
N320        N  0.44987353  0.57373397  0.95185871     0.03200
H321        H  0.36392448  0.52843561  0.91323300     0.09100
H322        H  0.53323695  0.63487749  0.91216726     0.09100
N323        N  0.58299050  0.45310328  0.95386076    -0.23900
N324        N  0.54592379  0.57955560  0.54676961    -0.23500
N325        N  0.42579490  0.44538258  0.95333288     0.03500
C326        C  0.59623195  0.40828668  0.60181098     0.44900
C327        C  0.39220648  0.54975155  0.57916332    -0.04700
N328        N  0.54632080  0.57845821  0.95223063    -0.23500
H329        H  0.53220835  0.63652532  0.58583104     0.09100
N330        N  0.56112181  0.39358032  0.58000775    -0.44700
H331        H  0.36409832  0.52977084  0.58663646     0.09100
C332        C  0.40711395  0.58812958  0.89913465     0.44800
C333        C  0.45069443  0.38964148  0.58123531    -0.04200
Co334      Co  0.42218505  0.49408754  0.50010524     0.73800
N335        N  0.44222985  0.60421463  0.57736711    -0.44400
C336        C  0.59669525  0.40600039  0.90140874     0.45000
N337        N  0.39682690  0.43765501  0.92236140    -0.44400
Co338      Co  0.49783038  0.57768735  0.99933639     0.73900
C339        C  0.55308672  0.60667598  0.91964923    -0.04700
C340        C  0.61115078  0.44802497  0.58079980    -0.04300
N341        N  0.45767967  0.41645976  0.95395207    -0.23800
N342        N  0.60666742  0.55822475  0.57848572    -0.44600
H343        H  0.63969131  0.46613235  0.91417476     0.09100
C344        C  0.39231544  0.54826509  0.92001295    -0.04700
Cl345      Cl  0.50181937  0.49804384  0.50031078    -0.47700
C346        C  0.40713174  0.58986222  0.59944325     0.44800
H347        H  0.47115701  0.35921562  0.91521088     0.09000
N348        N  0.44232448  0.60272471  0.92086011    -0.44400
C349        C  0.59843326  0.90407942  0.60003891     0.44700
N350        N  0.57810914  0.95072508  0.55198899     0.03600
C351        C  0.38851546  0.07574928  0.55486887    -0.04300
H352        H  0.35751136  0.91966749  0.53629610     0.09000
C353        C  0.44361553  0.92401244  0.88626701    -0.04700
Co354      Co  0.49768784  0.99893118  0.57985964     0.74200
N355        N  0.41907788  0.95256162  0.54542593    -0.23900
Co356      Co  0.42104703  0.99968553  0.49636895     0.74100
C357        C  0.40132717  0.90634386  0.89917321     0.44800
N358        N  0.55293410  0.95091617  0.92204086     0.03200
N359        N  0.42269940  0.95238065  0.94734853     0.03300
N360        N  0.43815768  0.07398192  0.60928251    -0.44700
H361        H  0.53883140  0.91859635  0.64319558     0.09000
N362        N  0.44805078  0.95200337  0.57730986     0.03600
N363        N  0.42375272  0.04700828  0.94745828     0.03300
C364        C  0.40334892  0.09358684  0.89938152     0.44900
N365        N  0.58188717  0.95092424  0.95394828    -0.23300
C366        C  0.55830639  0.07373554  0.61314786    -0.04200
N367        N  0.61010830  0.92355960  0.56240878    -0.44400
N368        N  0.39171259  0.07411544  0.93702417    -0.44600
C369        C  0.60062317  0.09135709  0.60024799     0.44700
N370        N  0.44891157  0.04682492  0.57737772     0.03500
N371        N  0.58282614  0.04512133  0.95399343    -0.23300
N372        N  0.54663068  0.95132432  0.58140244    -0.23800
N373        N  0.55386918  0.04571658  0.92209646     0.03200
H374        H  0.64456752  0.07769045  0.96302788     0.09100
H375        H  0.46294645  0.07910621  0.85620822     0.09100
N376        N  0.41994526  0.04678227  0.54548280    -0.23900
N377        N  0.45422383  0.95228676  0.91797035    -0.23500
N378        N  0.57917543  0.04536406  0.55205398     0.03500
C379        C  0.39957113  0.90525966  0.59657175     0.44900
C380        C  0.61329088  0.92192863  0.94456575    -0.04700
N381        N  0.45523205  0.04643682  0.91804134    -0.23500
H382        H  0.46130738  0.91953134  0.85611533     0.09100
N383        N  0.43705344  0.92476320  0.60905565    -0.44700
H384        H  0.64307654  0.91730595  0.96289226     0.09100
C385        C  0.60259748  0.09216188  0.90272008     0.44800
C386        C  0.55659918  0.92273407  0.61303721    -0.04200
Co387      Co  0.58081526  0.99803020  0.50305861     0.73800
N388        N  0.56367283  0.92375783  0.89013347    -0.44400
C389        C  0.40090702  0.09401650  0.59688247     0.45000
N390        N  0.61184193  0.07169456  0.56257670    -0.44400
Co391      Co  0.50418532  0.99883061  0.91955831     0.73900
C392        C  0.44521213  0.07498995  0.88638927    -0.04700
C393        C  0.38731369  0.92391730  0.55468324    -0.04300
N394        N  0.54765281  0.04548579  0.58143428    -0.23800
N395        N  0.39006778  0.92600150  0.93683531    -0.44600
H396        H  0.35872240  0.08034527  0.53654682     0.09100
C397        C  0.61472233  0.07358956  0.94467608    -0.04700
Cl398      Cl  0.50093360  0.99887470  0.49970919    -0.47700
C399        C  0.60089788  0.90368303  0.90254158     0.44800
H400        H  0.54064340  0.07819941  0.64331887     0.09000
N401        N  0.56503591  0.07278672  0.89026315    -0.44400
C402        C  0.90594393  0.40093598  0.59994994     0.44700
N403        N  0.95243767  0.42154451  0.55185424     0.03600
C404        C  0.07795482  0.61080002  0.55492914    -0.04300
H405        H  0.92232984  0.64275704  0.53617579     0.09000
C406        C  0.92630426  0.55589005  0.88607414    -0.04700
Co407      Co  0.00049505  0.50203816  0.57983432     0.74200
N408        N  0.95450184  0.58079307  0.54521140    -0.23900
Co409      Co  0.00176883  0.57864807  0.49629447     0.74100
C410        C  0.90847466  0.59810585  0.89898241     0.44800
N411        N  0.95320743  0.44678303  0.92188717     0.03200
N412        N  0.95461521  0.57694713  0.94714070     0.03300
N413        N  0.07575624  0.56118151  0.60937170    -0.44700
H414        H  0.92023794  0.46060038  0.64310651     0.09000
N415        N  0.95368691  0.55181508  0.57709484     0.03600
N416        N  0.04924289  0.57593726  0.94751872     0.03300
C417        C  0.09582156  0.59644886  0.89947502     0.44900
N418        N  0.95302061  0.41784774  0.95381504    -0.23300
C419        C  0.07539324  0.44169138  0.61330087    -0.04200
N420        N  0.92547276  0.38938379  0.56231533    -0.44400
N421        N  0.07627934  0.60804836  0.93708816    -0.44600
C422        C  0.09327394  0.39950017  0.60040315     0.44700
N423        N  0.04848659  0.55068602  0.57748155     0.03500
N424        N  0.04719788  0.41674509  0.95417969    -0.23300
N425        N  0.95287689  0.45305089  0.58124710    -0.23800
N426        N  0.04797962  0.44571608  0.92228865     0.03200
H427        H  0.07945031  0.35482650  0.96323056     0.09100
H428        H  0.08149989  0.53679186  0.85631928     0.09100
N429        N  0.04870507  0.57962711  0.54555941    -0.23900
N430        N  0.95462846  0.54541001  0.91777640    -0.23500
N431        N  0.04706721  0.42055855  0.55226537     0.03500
C432        C  0.90749095  0.60082391  0.59642905     0.44900
C433        C  0.92393373  0.38655211  0.94437581    -0.04700
N434        N  0.04877966  0.54443259  0.91812609    -0.23500
H435        H  0.92181706  0.53812468  0.85596497     0.09100
N436        N  0.92663162  0.56312922  0.60888309    -0.44700
H437        H  0.91913047  0.35680075  0.96271971     0.09100
C438        C  0.09423837  0.39677427  0.90297581     0.44800
C439        C  0.92436519  0.44291116  0.61290276    -0.04200
Co440      Co  0.99992819  0.41885374  0.50309233     0.73800
N441        N  0.92610005  0.43613651  0.88990983    -0.44400
C442        C  0.09611671  0.59823945  0.59694763     0.45000
N443        N  0.07363850  0.38808059  0.56277203    -0.44400
Co444      Co  0.00116103  0.49546471  0.91954333     0.73900
C445        C  0.07734128  0.55451314  0.88650005    -0.04700
C446        C  0.92620077  0.61285727  0.55450055    -0.04300
N447        N  0.04703060  0.45210718  0.58161525    -0.23800
N448        N  0.92810160  0.60946683  0.93663133    -0.44600
H449        H  0.08289654  0.64050074  0.53654010     0.09100
C450        C  0.07554028  0.38471761  0.94490055    -0.04700
Cl451      Cl  0.00083276  0.49874978  0.49968970    -0.47700
C452        C  0.90585643  0.39900058  0.90229508     0.44800
H453        H  0.07990304  0.45950022  0.64338089     0.09000
N454        N  0.07505377  0.43443728  0.89050798    -0.44400
C455        C  0.25204276  0.25072871  0.70775182     0.47700
H456        H  0.25247010  0.25142512  0.67153182    -0.01400
C457        C  0.25172450  0.24977010  0.79248234     0.47700
H458        H  0.25187771  0.24961912  0.82871201    -0.01400
C459        C  0.28387453  0.28313771  0.72840850    -0.15100
C460        C  0.20778465  0.26328797  0.72771801    -0.14800
C461        C  0.26577904  0.20661241  0.72730565    -0.15200
C462        C  0.28375150  0.28258817  0.77281528    -0.15200
C463        C  0.20763173  0.26284449  0.77246436    -0.14700
C464        C  0.26556938  0.20610537  0.77205190    -0.15100
C465        C  0.75046657  0.24856860  0.70771034     0.47700
H466        H  0.75022582  0.24875831  0.67148204    -0.01400
C467        C  0.75036367  0.24884172  0.79243601     0.47700
H468        H  0.75007982  0.24921494  0.82866324    -0.01400
C469        C  0.71773727  0.28046414  0.72776530    -0.15100
C470        C  0.73775085  0.20440164  0.72781609    -0.14800
C471        C  0.79428797  0.26256873  0.72768793    -0.15200
C472        C  0.71763725  0.28058438  0.77217932    -0.15200
C473        C  0.73768351  0.20456628  0.77256983    -0.14700
C474        C  0.79421395  0.26275944  0.77243498    -0.15100
C475        C  0.25356057  0.74669899  0.70742001     0.47700
H476        H  0.25425719  0.74593553  0.67120467    -0.01400
C477        C  0.25256590  0.74781812  0.79214410     0.47700
H478        H  0.25241622  0.74799759  0.82837217    -0.01400
C479        C  0.28609925  0.71520431  0.72837073    -0.15100
C480        C  0.26594619  0.79119272  0.72696669    -0.14800
C481        C  0.20950562  0.73297598  0.72708474    -0.15600
C482        C  0.28554245  0.71575904  0.77277715    -0.15200
C483        C  0.26544075  0.79180049  0.77171270    -0.14700
C484        C  0.20896575  0.73358438  0.77182287    -0.15100
C485        C  0.74994497  0.74750745  0.70742169     0.47700
H486        H  0.74941174  0.74724590  0.67119623    -0.01400
C487        C  0.75047554  0.74747084  0.79215327     0.47700
H488        H  0.75043402  0.74718949  0.82838129    -0.01400
C489        C  0.71833059  0.71470024  0.72778951    -0.15100
C490        C  0.79431655  0.73490704  0.72711618    -0.14800
C491        C  0.73606875  0.79131640  0.72750522    -0.15200
C492        C  0.71864472  0.71463569  0.77220037    -0.15200
C493        C  0.79460430  0.73490839  0.77187278    -0.14700
C494        C  0.73626494  0.79128655  0.77224992    -0.15100
C495        C  0.17953108  0.70690526  0.70125483    -0.16300
C496        C  0.15879487  0.68233796  0.67837432     0.07800
C497        C  0.13721039  0.65223393  0.65061941     0.09600
C498        C  0.11916366  0.62684165  0.62639281    -0.17200
C499        C  0.11824414  0.62697046  0.87146517    -0.16300
C500        C  0.13592609  0.65323497  0.84788282     0.07800
C501        C  0.15744717  0.68367551  0.82042020     0.09600
C502        C  0.17844244  0.70808213  0.79759078    -0.17200
C503        C  0.11662429  0.36759108  0.87360089    -0.16300
C504        C  0.13430164  0.34200446  0.84931653     0.07800
C505        C  0.15582314  0.31202826  0.82139470     0.09600
C506        C  0.17688717  0.28790960  0.79835455    -0.17200
C507        C  0.11584572  0.36898814  0.62828127    -0.16300
C508        C  0.13379386  0.34289013  0.65183471     0.07800
C509        C  0.15567971  0.31269858  0.67926327     0.09600
C510        C  0.17697125  0.28850529  0.70203398    -0.17200
C511        C  0.88374293  0.37030430  0.62802603    -0.16300
C512        C  0.86630412  0.34387240  0.65160884     0.07800
C513        C  0.84511939  0.31315585  0.67903651     0.09600
C514        C  0.82443807  0.28846158  0.70185047    -0.17200
C515        C  0.88332373  0.37013008  0.87273185    -0.16300
C516        C  0.86573752  0.34442616  0.84850637     0.07800
C517        C  0.84462365  0.31392323  0.82084480     0.09600
C518        C  0.82413354  0.28905130  0.79808513    -0.17200
C519        C  0.88613107  0.62874370  0.87106323    -0.16300
C520        C  0.86840672  0.65500821  0.84752801     0.07800
C521        C  0.84674708  0.68539975  0.82014572     0.09600
C522        C  0.82553251  0.70970772  0.79742905    -0.17200
C523        C  0.88510787  0.63002755  0.62580696    -0.16300
C524        C  0.86743197  0.65562107  0.65009816     0.07800
C525        C  0.84593524  0.68560574  0.67805191     0.09600
C526        C  0.82493637  0.70975084  0.70113808    -0.17200
C527        C  0.63174991  0.11452516  0.87332046    -0.16300
C528        C  0.65747266  0.13207453  0.84909820     0.07800
C529        C  0.68774760  0.15331259  0.82130122     0.09600
C530        C  0.71219866  0.17409442  0.79836284    -0.17200
C531        C  0.71253882  0.17356849  0.70211918    -0.16300
C532        C  0.68823940  0.15241596  0.67932067     0.07800
C533        C  0.65781241  0.13089044  0.65184529     0.09600
C534        C  0.63145566  0.11337781  0.62824024    -0.17200
C535        C  0.29170382  0.17664074  0.70131087    -0.16300
C536        C  0.31625650  0.15596243  0.67835591     0.07800
C537        C  0.34647116  0.13454286  0.65057697     0.09600
C538        C  0.37204225  0.11672535  0.62635796    -0.17200
C539        C  0.29130577  0.17562244  0.79760481    -0.16300
C540        C  0.31590680  0.15476671  0.82033205     0.07800
C541        C  0.34651311  0.13346346  0.84774153     0.09600
C542        C  0.37284651  0.11592839  0.87133097    -0.17200
C543        C  0.71020642  0.82158479  0.70180649    -0.16300
C544        C  0.68561609  0.84241687  0.67903577     0.07800
C545        C  0.65508997  0.86384174  0.65161682     0.09600
C546        C  0.62884670  0.88154133  0.62804162    -0.17200
C547        C  0.62978301  0.88103027  0.87304640    -0.16300
C548        C  0.65539288  0.86328848  0.84881454     0.07800
C549        C  0.68567608  0.84196078  0.82104193     0.09600
C550        C  0.71029291  0.82131551  0.79812733    -0.17200
C551        C  0.37060437  0.88410257  0.87124215    -0.16300
C552        C  0.34441705  0.86633880  0.84764101     0.07800
C553        C  0.31426422  0.84446736  0.82014487     0.09600
C554        C  0.29025095  0.82299977  0.79734323    -0.17200
C555        C  0.29121339  0.82172875  0.70102434    -0.16300
C556        C  0.31537773  0.84274606  0.67798833     0.07800
C557        C  0.34527162  0.86442466  0.65010666     0.09600
C558        C  0.37068811  0.88240596  0.62587095    -0.17200
C559        C  0.31268904  0.68840920  0.79925070    -0.16300
C560        C  0.33523480  0.66490583  0.82086261     0.07800
C561        C  0.36116588  0.63724636  0.84634891     0.09600
C562        C  0.38269451  0.61413313  0.86938212    -0.17200
C563        C  0.31414482  0.68753991  0.70311983    -0.16300
C564        C  0.33711700  0.66439426  0.68153961     0.07800
C565        C  0.36296604  0.63760527  0.65500982     0.09600
C566        C  0.38388461  0.61528775  0.63064513    -0.17200
C567        C  0.69161404  0.68668228  0.79821649    -0.16300
C568        C  0.66872049  0.66345846  0.81979661     0.07800
C569        C  0.64185705  0.63701393  0.84565421     0.09600
C570        C  0.61919877  0.61549324  0.86916852    -0.17200
C571        C  0.61735065  0.61739167  0.63075695    -0.16300
C572        C  0.63994869  0.63858420  0.65459212     0.07800
C573        C  0.66722015  0.66439846  0.68060665     0.09600
C574        C  0.69067135  0.68710794  0.70210181    -0.17200
C575        C  0.68988441  0.30804987  0.79799082    -0.16300
C576        C  0.66704748  0.33111706  0.81981411     0.07800
C577        C  0.64120040  0.35793453  0.84634513     0.09600
C578        C  0.62016704  0.38036633  0.87052207    -0.17200
C579        C  0.69039459  0.30810474  0.70184207    -0.16300
C580        C  0.66778203  0.33175528  0.68048665     0.07800
C581        C  0.64188019  0.35944865  0.65504689     0.09600
C582        C  0.62045216  0.38248265  0.63186408    -0.17200
C583        C  0.31156072  0.30950644  0.79906591    -0.16300
C584        C  0.33527626  0.33169192  0.82082554     0.07800
C585        C  0.36292254  0.35708276  0.84687550     0.09600
C586        C  0.38580314  0.37816689  0.87054493    -0.17200
C587        C  0.38485116  0.38129390  0.63216044    -0.16300
C588        C  0.36209967  0.36009840  0.65586244     0.07800
C589        C  0.33487275  0.33401420  0.68167798     0.09600
C590        C  0.31151703  0.31100277  0.70297203    -0.17200
loop_ 
_geom_bond_atom_site_label_1 
_geom_bond_atom_site_label_2 
_geom_bond_distance 
_geom_bond_site_symmetry_2 
_ccdc_geom_bond_type 
C1           N19   1.345       .  A
C1           C38   1.452       .  S
C1          C292   1.425       .  S
N2           N19   1.323       .  A
N2           N24   1.319       .  A
N2          Co39   2.074       .  S
C3           N28   1.339       .  A
C3           C41   1.452       .  S
C3           H48   1.082       .  S
H4           C45   1.082       .  S
C5           N29   1.338       .  A
C5            C9   1.452       .  S
C5           H34   1.082       .  S
Co6          N24   2.074       .  S
Co6          N14   2.073       .  S
Co6         N341   2.073   1_554  S
Co6         N317   2.076   1_554  S
Co6         Cl50   2.444       .  S
N7           C45   1.338       .  A
N7           N14   1.319       .  A
N7         Co303   2.073       .  S
Co8          N28   2.074       .  S
Co8          N15   2.074       .  S
Co8         N302   2.073       .  S
Co8         N306   2.074       .  S
Co8        Cl345   2.444       .  S
C9           N47   1.345       .  A
C9          C276   1.425       .  S
N10          N17   1.320       .  A
N10          N40   1.323       .  A
N10        Co338   2.075   1_554  S
N11          N29   1.319       .  A
N11          N47   1.322       .  A
N11        Co303   2.074       .  S
N12          C41   1.346       .  A
N12          N22   1.323       .  A
H13          C38   1.082       .  S
N14          N35   1.322       .  A
N15          N33   1.320       .  A
N15          N20   1.323       .  A
C16          N20   1.345       .  A
C16          C44   1.452       .  S
C16         C275   1.426       .  S
N17          C32   1.339       .  A
N17         Co39   2.074       .  S
C18          N46   1.338       .  A
C18          C21   1.452       .  S
C18          H52   1.082       .  S
C21          N42   1.345       .  A
C21         C291   1.425       .  S
N22          N28   1.320       .  A
N22        Co301   2.076       .  S
N23          C49   1.338       .  A
N23          N25   1.319       .  A
N23        Co334   2.073       .  S
N24          C38   1.338       .  A
N25          N53   1.322       .  A
N25         Co43   2.074       .  S
H26          C49   1.082       .  S
H27          C44   1.082       .  S
N29        Co338   2.073   1_554  S
N30          N42   1.322       .  A
N30          N46   1.320       .  A
N30        Co334   2.074       .  S
C31          N35   1.345       .  A
C31          C45   1.452       .  S
C31         C287   1.424       .  S
C32          C51   1.452       .  S
C32          H36   1.082       .  S
N33          C44   1.338       .  A
N33         Co43   2.074       .  S
C37          N53   1.345       .  A
C37          C49   1.452       .  S
C37         C267   1.425       .  S
Co39        N318   2.073   1_554  S
Co39        N325   2.074   1_554  S
Co39        Cl50   2.444       .  S
N40          C51   1.345       .  A
C41         C283   1.426       .  S
Co43        N305   2.075       .  S
Co43        N324   2.073       .  S
Co43       Cl345   2.444       .  S
N46        Co301   2.073       .  S
Cl50       Co303   2.444       .  S
Cl50       Co338   2.444   1_554  S
C51         C271   1.426       .  S
C54          N72   1.349       .  A
C54          C91   1.460       .  S
C54         C251   1.444       .  S
N55          N72   1.326       .  A
N55          N77   1.322       .  A
N55         Co92   2.089       .  S
C56          N81   1.341       .  A
C56          C94   1.457       .  S
C56         H101   1.082       .  S
H57          C98   1.082       .  S
C58          N82   1.343       .  A
C58          C62   1.460       .  S
C58          H87   1.082       .  S
Co59         N77   2.093       .  S
Co59         N67   2.095       .  S
Co59         N99   2.094   1_565  S
Co59         N75   2.097   1_565  S
Co59       Cl103   2.463   1_554  S
N60          C98   1.341       .  A
N60          N67   1.322       .  A
N60         Co61   2.087   1_554  S
Co61         N81   2.088   1_566  S
Co61        N359   2.091       .  S
Co61        N363   2.089   1_565  S
Co61       Cl103   2.451       .  S
C62         N100   1.349       .  A
C62         C256   1.445       .  S
N63          N70   1.322       .  A
N63          N93   1.327       .  A
N63         Co96   2.096       .  S
N64          N82   1.322       .  A
N64         N100   1.326       .  A
N64        Co356   2.091       .  S
N65          C94   1.351       .  A
N65          N75   1.327       .  A
H66          C91   1.082       .  S
N67          N88   1.327       .  A
N68          N86   1.322       .  A
N68          N73   1.326       .  A
N68        Co356   2.089   1_545  S
C69          N73   1.349       .  A
C69          C97   1.460       .  S
C69         C247   1.444       .  S
N70          C85   1.341       .  A
N70        Co387   2.088       .  S
C71          N99   1.343       .  A
C71          C74   1.460       .  S
C71         H105   1.082       .  S
C74          N95   1.349       .  A
C74         C239   1.445       .  S
N75          N81   1.322       .  A
N76         C102   1.341       .  A
N76          N78   1.322       .  A
N76        Co387   2.087   1_545  S
N77          C91   1.343       .  A
N78         N106   1.327       .  A
N78         Co96   2.095   1_545  S
H79         C102   1.082       .  S
H80          C97   1.082       .  S
N82         Co96   2.093       .  S
N83          N95   1.326       .  A
N83          N99   1.322       .  A
N83         Co92   2.091   1_545  S
C84          N88   1.351       .  A
C84          C98   1.457       .  S
C84         C263   1.443       .  S
C85         C104   1.457       .  S
C85          H89   1.082       .  S
N86          C97   1.343       .  A
N86         Co96   2.093   1_545  S
C90         N106   1.351       .  A
C90         C102   1.456       .  S
C90         C232   1.443       .  S
Co92        N365   2.088   1_554  S
Co92        N371   2.087   1_564  S
Co92       Cl103   2.451   1_554  S
N93         C104   1.351       .  A
C94         C243   1.445       .  S
Co96       Cl398   2.463       .  S
Cl103      Co391   2.463       .  S
C104        C252   1.444       .  S
C107        N125   1.349       .  A
C107        C144   1.460       .  S
C107        C216   1.445       .  S
N108        N125   1.326       .  A
N108        N130   1.322       .  A
N108       Co145   2.090       .  S
C109        N134   1.341       .  A
C109        C147   1.457       .  S
C109        H154   1.082       .  S
H110        C151   1.082       .  S
C111        N135   1.343       .  A
C111        C115   1.459       .  S
C111        H140   1.082       .  S
Co112       N130   2.094   1_455  S
Co112       N120   2.096   1_455  S
Co112       N152   2.093       .  S
Co112       N128   2.096       .  S
Co112      Cl156   2.463   1_554  S
N113        C151   1.342       .  A
N113        N120   1.322       .  A
N113       Co114   2.088   1_654  S
Co114       N134   2.088   1_556  S
Co114       N412   2.090   1_455  S
Co114       N416   2.090       .  S
Co114      Cl156   2.451       .  S
C115        N153   1.349       .  A
C115        C224   1.444       .  S
N116        N123   1.322       .  A
N116        N146   1.327       .  A
N116       Co149   2.096   1_655  S
N117        N135   1.322       .  A
N117        N153   1.326       .  A
N117       Co409   2.090   1_655  S
N118        C147   1.351       .  A
N118        N128   1.327       .  A
H119        C144   1.082       .  S
N120        N141   1.327       .  A
N121        N139   1.322       .  A
N121        N126   1.326       .  A
N121       Co409   2.090       .  S
C122        N126   1.349       .  A
C122        C150   1.460       .  S
C122        C204   1.445       .  S
N123        C138   1.341       .  A
N123       Co440   2.087       .  S
C124        N152   1.343       .  A
C124        C127   1.459       .  S
C124        H158   1.082       .  S
C127        N148   1.349       .  A
C127        C212   1.444       .  S
N128        N134   1.322       .  A
N129        C155   1.341       .  A
N129        N131   1.322       .  A
N129       Co440   2.088   1_455  S
N130        C144   1.343       .  A
N131        N159   1.327       .  A
N131       Co149   2.095       .  S
H132        C155   1.082       .  S
H133        C150   1.082       .  S
N135       Co149   2.093   1_655  S
N136        N148   1.326       .  A
N136        N152   1.322       .  A
N136       Co145   2.090   1_455  S
C137        N141   1.351       .  A
C137        C151   1.457       .  S
C137        C228   1.444       .  S
C138        C157   1.457       .  S
C138        H142   1.082       .  S
N139        C150   1.343       .  A
N139       Co149   2.094       .  S
C143        N159   1.351       .  A
C143        C155   1.457       .  S
C143        C208   1.444       .  S
Co145       N418   2.087   1_554  S
Co145       N424   2.088   1_654  S
Co145      Cl156   2.451   1_654  S
N146        C157   1.351       .  A
C147        C203   1.444       .  S
Co149      Cl451   2.463       .  S
Cl156      Co444   2.463       .  S
C157        C220   1.444       .  S
C160        H161   1.112       .  S
C160        C166   1.538       .  S
C160        C165   1.538       .  S
C160        C164   1.530       .  S
C162        H163   1.112       .  S
C162        C168   1.538       .  S
C162        C167   1.530       .  S
C162        C169   1.538       .  S
C164        C167   1.364       .  D
C164        C295   1.434       .  S
C165        C168   1.374       .  D
C165        C215   1.453       .  S
C166        C169   1.374       .  D
C166        C240   1.453       .  S
C167        C288   1.434       .  S
C168        C211   1.453       .  S
C169        C244   1.453       .  S
C170        H171   1.112       .  S
C170        C176   1.538       .  S
C170        C175   1.538       .  S
C170        C174   1.530       .  S
C172        H173   1.112       .  S
C172        C178   1.538       .  S
C172        C177   1.529       .  S
C172        C179   1.538       .  S
C174        C177   1.364       .  D
C174        C284   1.433       .  S
C175        C178   1.374       .  D
C175        C236   1.454       .  S
C176        C179   1.374       .  D
C176        C219   1.454       .  S
C177        C280   1.435       .  S
C178        C235   1.452       .  S
C179        C223   1.453       .  S
C180        H181   1.112       .  S
C180        C186   1.538       .  S
C180        C185   1.538       .  S
C180        C184   1.530       .  S
C182        H183   1.112       .  S
C182        C188   1.538       .  S
C182        C187   1.530       .  S
C182        C189   1.538       .  S
C184        C187   1.364       .  D
C184        C268   1.435       .  S
C185        C188   1.374       .  D
C185        C260   1.453       .  S
C186        C189   1.374       .  D
C186        C200   1.453       .  S
C187        C264   1.434       .  S
C188        C259   1.453       .  S
C189        C207   1.453       .  S
C190        H191   1.112       .  S
C190        C196   1.538       .  S
C190        C195   1.538       .  S
C190        C194   1.530       .  S
C192        H193   1.112       .  S
C192        C198   1.538       .  S
C192        C197   1.530       .  S
C192        C199   1.538       .  S
C194        C197   1.364       .  D
C194        C279   1.434       .  S
C195        C198   1.374       .  D
C195        C231   1.453       .  S
C196        C199   1.374       .  D
C196        C248   1.453       .  S
C197        C272   1.435       .  S
C198        C227   1.453       .  S
C199        C255   1.453       .  S
C200        C201   1.210       .  T
C201        C202   1.420       .  S
C202        C203   1.210       .  T
C204        C205   1.211       .  T
C205        C206   1.420       .  S
C206        C207   1.210       .  T
C208        C209   1.210       .  T
C209        C210   1.419       .  S
C210        C211   1.210       .  T
C212        C213   1.210       .  T
C213        C214   1.419       .  S
C214        C215   1.210       .  T
C216        C217   1.211       .  T
C217        C218   1.420       .  S
C218        C219   1.210       .  T
C220        C221   1.210       .  T
C221        C222   1.419       .  S
C222        C223   1.210       .  T
C224        C225   1.210       .  T
C225        C226   1.419       .  S
C226        C227   1.210       .  T
C228        C229   1.211       .  T
C229        C230   1.420       .  S
C230        C231   1.210       .  T
C232        C233   1.210       .  T
C233        C234   1.419       .  S
C234        C235   1.210       .  T
C236        C237   1.210       .  T
C237        C238   1.420       .  S
C238        C239   1.211       .  T
C240        C241   1.210       .  T
C241        C242   1.420       .  S
C242        C243   1.211       .  T
C244        C245   1.210       .  T
C245        C246   1.419       .  S
C246        C247   1.210       .  T
C248        C249   1.210       .  T
C249        C250   1.419       .  S
C250        C251   1.210       .  T
C252        C253   1.211       .  T
C253        C254   1.420       .  S
C254        C255   1.210       .  T
C256        C257   1.211       .  T
C257        C258   1.420       .  S
C258        C259   1.210       .  T
C260        C261   1.210       .  T
C261        C262   1.419       .  S
C262        C263   1.210       .  T
C264        C265   1.199       .  T
C265        C266   1.401       .  S
C266        C267   1.199       .  T
C268        C269   1.199       .  T
C269        C270   1.402       .  S
C270        C271   1.200       .  T
C272        C273   1.199       .  T
C273        C274   1.402       .  S
C274        C275   1.199       .  T
C276        C277   1.199       .  T
C277        C278   1.401       .  S
C278        C279   1.199       .  T
C280        C281   1.200       .  T
C281        C282   1.403       .  S
C282        C283   1.200       .  T
C284        C285   1.198       .  T
C285        C286   1.400       .  S
C286        C287   1.198       .  T
C288        C289   1.199       .  T
C289        C290   1.401       .  S
C290        C291   1.199       .  T
C292        C293   1.199       .  T
C293        C294   1.401       .  S
C294        C295   1.199       .  T
C296        N314   1.345       .  A
C296        C333   1.452       .  S
C296        C587   1.425       .  S
N297        N314   1.323       .  A
N297        N319   1.319       .  A
N297       Co334   2.074       .  S
C298        N323   1.339       .  A
C298        C336   1.452       .  S
C298        H343   1.082       .  S
H299        C340   1.082       .  S
C300        N324   1.338       .  A
C300        C304   1.452       .  S
C300        H329   1.082       .  S
Co301       N319   2.074       .  S
Co301       N309   2.073       .  S
Co301      Cl345   2.444       .  S
N302        C340   1.338       .  A
N302        N309   1.319       .  A
Co303       N323   2.074   1_554  S
Co303       N310   2.074   1_554  S
C304        N342   1.345       .  A
C304        C571   1.425       .  S
N305        N312   1.320       .  A
N305        N335   1.323       .  A
N306        N324   1.319       .  A
N306        N342   1.322       .  A
N307        C336   1.346       .  A
N307        N317   1.323       .  A
H308        C333   1.082       .  S
N309        N330   1.322       .  A
N310        N328   1.320       .  A
N310        N315   1.323       .  A
C311        N315   1.345       .  A
C311        C339   1.452       .  S
C311        C570   1.426       .  S
N312        C327   1.339       .  A
N312       Co334   2.074       .  S
C313        N341   1.338       .  A
C313        C316   1.452       .  S
C313        H347   1.082       .  S
C316        N337   1.345       .  A
C316        C586   1.425       .  S
N317        N323   1.320       .  A
N318        C344   1.338       .  A
N318        N320   1.319       .  A
N319        C333   1.338       .  A
N320        N348   1.322       .  A
N320       Co338   2.074       .  S
H321        C344   1.082       .  S
H322        C339   1.082       .  S
N325        N337   1.322       .  A
N325        N341   1.320       .  A
C326        N330   1.345       .  A
C326        C340   1.452       .  S
C326        C582   1.424       .  S
C327        C346   1.452       .  S
C327        H331   1.082       .  S
N328        C339   1.338       .  A
N328       Co338   2.074       .  S
C332        N348   1.345       .  A
C332        C344   1.452       .  S
C332        C562   1.425       .  S
Co334      Cl345   2.444       .  S
N335        C346   1.345       .  A
C336        C578   1.426       .  S
C346        C566   1.426       .  S
C349        N367   1.349       .  A
C349        C386   1.460       .  S
C349        C546   1.444       .  S
N350        N367   1.326       .  A
N350        N372   1.322       .  A
N350       Co387   2.089       .  S
C351        N376   1.341       .  A
C351        C389   1.457       .  S
C351        H396   1.082       .  S
H352        C393   1.082       .  S
C353        N377   1.343       .  A
C353        C357   1.460       .  S
C353        H382   1.082       .  S
Co354       N372   2.093       .  S
Co354       N362   2.095       .  S
Co354       N394   2.094   1_565  S
Co354       N370   2.097   1_565  S
Co354      Cl398   2.463       .  S
N355        C393   1.341       .  A
N355        N362   1.322       .  A
N355       Co356   2.087       .  S
Co356       N376   2.088   1_565  S
Co356      Cl398   2.451       .  S
C357        N395   1.349       .  A
C357        C551   1.445       .  S
N358        N365   1.322       .  A
N358        N388   1.327       .  A
N358       Co391   2.096       .  S
N359        N377   1.322       .  A
N359        N395   1.326       .  A
N360        C389   1.351       .  A
N360        N370   1.327       .  A
H361        C386   1.082       .  S
N362        N383   1.327       .  A
N363        N381   1.322       .  A
N363        N368   1.326       .  A
C364        N368   1.349       .  A
C364        C392   1.460       .  S
C364        C542   1.444       .  S
N365        C380   1.341       .  A
C366        N394   1.343       .  A
C366        C369   1.460       .  S
C366        H400   1.082       .  S
C369        N390   1.349       .  A
C369        C534   1.445       .  S
N370        N376   1.322       .  A
N371        C397   1.341       .  A
N371        N373   1.322       .  A
N372        C386   1.343       .  A
N373        N401   1.327       .  A
N373       Co391   2.095   1_545  S
H374        C397   1.082       .  S
H375        C392   1.082       .  S
N377       Co391   2.093       .  S
N378        N390   1.326       .  A
N378        N394   1.322       .  A
N378       Co387   2.091   1_545  S
C379        N383   1.351       .  A
C379        C393   1.457       .  S
C379        C558   1.443       .  S
C380        C399   1.457       .  S
C380        H384   1.082       .  S
N381        C392   1.343       .  A
N381       Co391   2.093   1_545  S
C385        N401   1.351       .  A
C385        C397   1.456       .  S
C385        C527   1.443       .  S
Co387      Cl398   2.451       .  S
N388        C399   1.351       .  A
C389        C538   1.445       .  S
C399        C547   1.444       .  S
C402        N420   1.349       .  A
C402        C439   1.460       .  S
C402        C511   1.445       .  S
N403        N420   1.326       .  A
N403        N425   1.322       .  A
N403       Co440   2.090       .  S
C404        N429   1.341       .  A
C404        C442   1.457       .  S
C404        H449   1.082       .  S
H405        C446   1.082       .  S
C406        N430   1.343       .  A
C406        C410   1.459       .  S
C406        H435   1.082       .  S
Co407       N425   2.094   1_455  S
Co407       N415   2.096   1_455  S
Co407       N447   2.093       .  S
Co407       N423   2.096       .  S
Co407      Cl451   2.463       .  S
N408        C446   1.342       .  A
N408        N415   1.322       .  A
N408       Co409   2.088   1_655  S
Co409       N429   2.088       .  S
Co409      Cl451   2.451       .  S
C410        N448   1.349       .  A
C410        C519   1.444       .  S
N411        N418   1.322       .  A
N411        N441   1.327       .  A
N411       Co444   2.096   1_655  S
N412        N430   1.322       .  A
N412        N448   1.326       .  A
N413        C442   1.351       .  A
N413        N423   1.327       .  A
H414        C439   1.082       .  S
N415        N436   1.327       .  A
N416        N434   1.322       .  A
N416        N421   1.326       .  A
C417        N421   1.349       .  A
C417        C445   1.460       .  S
C417        C499   1.445       .  S
N418        C433   1.341       .  A
C419        N447   1.343       .  A
C419        C422   1.459       .  S
C419        H453   1.082       .  S
C422        N443   1.349       .  A
C422        C507   1.444       .  S
N423        N429   1.322       .  A
N424        C450   1.341       .  A
N424        N426   1.322       .  A
N425        C439   1.343       .  A
N426        N454   1.327       .  A
N426       Co444   2.095       .  S
H427        C450   1.082       .  S
H428        C445   1.082       .  S
N430       Co444   2.093   1_655  S
N431        N443   1.326       .  A
N431        N447   1.322       .  A
N431       Co440   2.090   1_455  S
C432        N436   1.351       .  A
C432        C446   1.457       .  S
C432        C523   1.444       .  S
C433        C452   1.457       .  S
C433        H437   1.082       .  S
N434        C445   1.343       .  A
N434       Co444   2.094       .  S
C438        N454   1.351       .  A
C438        C450   1.457       .  S
C438        C503   1.444       .  S
Co440      Cl451   2.451   1_655  S
N441        C452   1.351       .  A
C442        C498   1.444       .  S
C452        C515   1.444       .  S
C455        H456   1.112       .  S
C455        C461   1.538       .  S
C455        C460   1.538       .  S
C455        C459   1.530       .  S
C457        H458   1.112       .  S
C457        C463   1.538       .  S
C457        C462   1.530       .  S
C457        C464   1.538       .  S
C459        C462   1.364       .  D
C459        C590   1.434       .  S
C460        C463   1.374       .  D
C460        C510   1.453       .  S
C461        C464   1.374       .  D
C461        C535   1.453       .  S
C462        C583   1.434       .  S
C463        C506   1.453       .  S
C464        C539   1.453       .  S
C465        H466   1.112       .  S
C465        C471   1.538       .  S
C465        C470   1.538       .  S
C465        C469   1.530       .  S
C467        H468   1.112       .  S
C467        C473   1.538       .  S
C467        C472   1.529       .  S
C467        C474   1.538       .  S
C469        C472   1.364       .  D
C469        C579   1.433       .  S
C470        C473   1.374       .  D
C470        C531   1.454       .  S
C471        C474   1.374       .  D
C471        C514   1.454       .  S
C472        C575   1.435       .  S
C473        C530   1.452       .  S
C474        C518   1.453       .  S
C475        H476   1.112       .  S
C475        C481   1.538       .  S
C475        C480   1.538       .  S
C475        C479   1.530       .  S
C477        H478   1.112       .  S
C477        C483   1.538       .  S
C477        C482   1.530       .  S
C477        C484   1.538       .  S
C479        C482   1.364       .  D
C479        C563   1.435       .  S
C480        C483   1.374       .  D
C480        C555   1.453       .  S
C481        C484   1.374       .  D
C481        C495   1.453       .  S
C482        C559   1.434       .  S
C483        C554   1.453       .  S
C484        C502   1.453       .  S
C485        H486   1.112       .  S
C485        C491   1.538       .  S
C485        C490   1.538       .  S
C485        C489   1.530       .  S
C487        H488   1.112       .  S
C487        C493   1.538       .  S
C487        C492   1.530       .  S
C487        C494   1.538       .  S
C489        C492   1.364       .  D
C489        C574   1.434       .  S
C490        C493   1.374       .  D
C490        C526   1.453       .  S
C491        C494   1.374       .  D
C491        C543   1.453       .  S
C492        C567   1.435       .  S
C493        C522   1.453       .  S
C494        C550   1.453       .  S
C495        C496   1.210       .  T
C496        C497   1.420       .  S
C497        C498   1.210       .  T
C499        C500   1.211       .  T
C500        C501   1.420       .  S
C501        C502   1.210       .  T
C503        C504   1.210       .  T
C504        C505   1.419       .  S
C505        C506   1.210       .  T
C507        C508   1.210       .  T
C508        C509   1.419       .  S
C509        C510   1.210       .  T
C511        C512   1.211       .  T
C512        C513   1.420       .  S
C513        C514   1.210       .  T
C515        C516   1.210       .  T
C516        C517   1.419       .  S
C517        C518   1.210       .  T
C519        C520   1.210       .  T
C520        C521   1.419       .  S
C521        C522   1.210       .  T
C523        C524   1.211       .  T
C524        C525   1.420       .  S
C525        C526   1.210       .  T
C527        C528   1.210       .  T
C528        C529   1.419       .  S
C529        C530   1.210       .  T
C531        C532   1.210       .  T
C532        C533   1.420       .  S
C533        C534   1.211       .  T
C535        C536   1.210       .  T
C536        C537   1.420       .  S
C537        C538   1.211       .  T
C539        C540   1.210       .  T
C540        C541   1.419       .  S
C541        C542   1.210       .  T
C543        C544   1.210       .  T
C544        C545   1.419       .  S
C545        C546   1.210       .  T
C547        C548   1.211       .  T
C548        C549   1.420       .  S
C549        C550   1.210       .  T
C551        C552   1.211       .  T
C552        C553   1.420       .  S
C553        C554   1.210       .  T
C555        C556   1.210       .  T
C556        C557   1.419       .  S
C557        C558   1.210       .  T
C559        C560   1.199       .  T
C560        C561   1.401       .  S
C561        C562   1.199       .  T
C563        C564   1.199       .  T
C564        C565   1.402       .  S
C565        C566   1.200       .  T
C567        C568   1.199       .  T
C568        C569   1.402       .  S
C569        C570   1.199       .  T
C571        C572   1.199       .  T
C572        C573   1.401       .  S
C573        C574   1.199       .  T
C575        C576   1.200       .  T
C576        C577   1.403       .  S
C577        C578   1.200       .  T
C579        C580   1.198       .  T
C580        C581   1.400       .  S
C581        C582   1.198       .  T
C583        C584   1.199       .  T
C584        C585   1.401       .  S
C585        C586   1.199       .  T
C587        C588   1.199       .  T
C588        C589   1.401       .  S
C589        C590   1.199       .  T
