geometry optimzed in LAMMPS
_audit_creation_date              2020-11-30 
_audit_creation_method            'lammps2cif' 
_symmetry_space_group_name_H-M    'P1' 
_symmetry_Int_Tables_number       1 
_symmetry_cell_setting            triclinic 
loop_ 
_symmetry_equiv_pos_as_xyz 
  x,y,z 
_cell_length_a                    38.40318064 
_cell_length_b                    39.442316050797466 
_cell_length_c                    36.53735472217863 
_cell_angle_alpha                 89.8396133730051 
_cell_angle_beta                  90.0773183567588 
_cell_angle_gamma                 89.94532116534346 
loop_ 
_atom_site_label 
_atom_site_type_symbol 
_atom_site_fract_x 
_atom_site_fract_y 
_atom_site_fract_z 
_atom_site_charge 
O1          O  0.51466354  0.46628387  0.07258288    -0.79600
O2          O  0.50497541  0.53955591  0.42995490    -0.79600
O3          O  0.54851410  0.46413647  0.45399748    -0.79600
O4          O  0.51376689  0.58233570  0.03547222    -0.79600
O5          O  0.50623746  0.47384489  0.41460491    -0.79700
O6          O  0.52674551  0.53230693  0.05918401    -0.79600
O7          O  0.54008685  0.54511759  0.47764417    -0.79600
O8          O  0.55150255  0.46288051  0.02794285    -0.79600
C9          C  0.54436922  0.45783026  0.06097365     1.10100
C10         C  0.53464845  0.54736052  0.44342082     1.10000
C11         C  0.53769369  0.46566941  0.42140067     1.10100
C12         C  0.52996955  0.56492892  0.05919256     1.10000
O13         O  0.46742630  0.51306150  0.09215777    -0.79600
O14         O  0.44233935  0.46370584  0.45593647    -0.79700
O15         O  0.48438892  0.42663042  0.02968700    -0.79600
O16         O  0.47177989  0.57234908  0.47630091    -0.79600
O17         O  0.43788090  0.53020126  0.46860970    -0.79600
O18         O  0.44703048  0.46816874  0.03963170    -0.79600
O19         O  0.45507867  0.54528553  0.04414932    -0.79600
O20         O  0.48451420  0.42650227  0.45478394    -0.79600
Co21       Co  0.48519827  0.50050444  0.04617251     1.51500
Co22       Co  0.47266791  0.50169825  0.44478894     1.51700
Co23       Co  0.51680403  0.44774599  0.49210776     1.51600
Co24       Co  0.49967707  0.54267039  0.01063418     1.51500
O25         O  0.49508415  0.49452385  0.99329874    -1.41500
C26         C  0.44971471  0.53670827  0.07796269     1.10000
C27         C  0.45403851  0.43570105  0.44540229     1.10100
C28         C  0.45513993  0.43715365  0.04191252     1.10100
C29         C  0.44357433  0.56100657  0.46350147     1.10000
C30         C  0.58414974  0.92459099  0.08322652     0.43000
N31         N  0.56940541  0.96467042  0.04617484     0.01900
C32         C  0.41722140  0.06019245  0.05037768    -0.06000
H33         H  0.39929243  0.93094210  0.02667098     0.07400
C34         C  0.46540847  0.94843854  0.40523825    -0.06300
Co35       Co  0.50429915  0.99988111  0.07066579     0.74200
N36         N  0.44368806  0.96258465  0.03896227    -0.25500
Co37       Co  0.44367984  0.00192962  0.00021246     0.74100
C38         C  0.43235384  0.93240545  0.41492745     0.43100
N39         N  0.54926929  0.97004427  0.43705493     0.01500
N40         N  0.44671207  0.96770850  0.45698000     0.01600
N41         N  0.45638321  0.05768931  0.09655453    -0.46400
H42         H  0.53530744  0.93354671  0.11872341     0.07400
N43         N  0.46658471  0.96219771  0.06595507     0.01900
N44         N  0.44509896  0.04102298  0.46162361     0.01600
C45         C  0.42855271  0.07986811  0.42409678     0.43300
N46         N  0.57227756  0.96808716  0.46388527    -0.25000
C47         C  0.54792165  0.06100368  0.09916994    -0.05900
N48         N  0.59405293  0.94193859  0.05299567    -0.46100
N49         N  0.41943604  0.06247587  0.45448205    -0.46300
C50         C  0.58002337  0.07792518  0.08811236     0.43000
N51         N  0.46434187  0.03609269  0.07006302     0.01900
N52         N  0.57231507  0.04203665  0.46814291    -0.25000
N53         N  0.54405913  0.96378273  0.07049397    -0.25500
N54         N  0.54903826  0.04389961  0.44166261     0.01500
H55         H  0.61908559  0.06993378  0.47980889     0.07400
H56         H  0.47823324  0.07332938  0.38917871     0.07500
N57         N  0.44148719  0.03669307  0.04307027    -0.25500
N58         N  0.47194588  0.97002566  0.43264635    -0.25100
N59         N  0.56816767  0.03875047  0.04946552     0.01900
C60         C  0.43357747  0.91949144  0.07712863     0.43300
C61         C  0.59463803  0.94279938  0.45626969    -0.06400
N62         N  0.47062548  0.04300804  0.43753703    -0.25100
H63         H  0.48058637  0.94629837  0.38044231     0.07400
N64         N  0.46109239  0.93731275  0.08962898    -0.46400
H65         H  0.61707946  0.93583475  0.47251021     0.07400
C66         C  0.58539845  0.08394913  0.42952615     0.43100
C67         C  0.55090380  0.93919644  0.09486263    -0.05900
Co68       Co  0.57123921  0.00329457  0.00696288     0.73800
N69         N  0.55487110  0.94756347  0.41087212    -0.46100
C70         C  0.42723335  0.07429459  0.08579295     0.43400
N71         N  0.59122289  0.06272917  0.05719592    -0.46100
Co72       Co  0.51041401  0.00694738  0.43671217     0.73900
C73         C  0.46282909  0.06721799  0.41302316    -0.06400
C74         C  0.42173680  0.93637911  0.04357115    -0.06000
N75         N  0.54260894  0.03726119  0.07360927    -0.25500
N76         N  0.42236974  0.94575925  0.44726964    -0.46200
H77         H  0.39427027  0.06513825  0.03402631     0.07400
C78         C  0.59615239  0.06639578  0.46307123    -0.06400
Cl79       Cl  0.50739917  0.00304938  0.00363528    -0.49400
C80         C  0.58305612  0.92933503  0.42092866     0.43200
H81         H  0.53194751  0.06511159  0.12311248     0.07400
N82         N  0.55608566  0.06831566  0.41784771    -0.46100
C83         C  0.92915926  0.43058611  0.08719149     0.43000
N84         N  0.96862618  0.44488545  0.04877594     0.01900
C85         C  0.06738726  0.59163075  0.04897353    -0.06000
H86         H  0.93815145  0.61418905  0.03843696     0.07400
C87         C  0.94105892  0.55047071  0.41403550    -0.06300
Co88       Co  0.00641610  0.50732263  0.07260940     0.74200
N89         N  0.96755479  0.56803667  0.04597890    -0.25500
Co90       Co  0.00411550  0.56777680  0.00395481     0.74100
C91         C  0.92608097  0.58272128  0.42636687     0.43100
N92         N  0.96566455  0.46659660  0.44058316     0.01500
N93         N  0.96551991  0.56647944  0.46430005     0.01600
N94         N  0.06759899  0.55319510  0.09508796    -0.46400
H95         H  0.94018389  0.47721312  0.12331273     0.07400
N96         N  0.96785495  0.54479344  0.07204452     0.01900
N97         N  0.04071586  0.56702752  0.46226081     0.01600
C98         C  0.07775281  0.58463427  0.42248524     0.43300
N99         N  0.96631123  0.44345650  0.46678686    -0.25000
C100        C  0.07018790  0.46363734  0.09613559    -0.05900
N101        N  0.94498500  0.42131152  0.05580474    -0.46100
N102        N  0.06220758  0.59215854  0.45450150    -0.46300
C103        C  0.08666081  0.43224174  0.08382302     0.43000
N104        N  0.04375751  0.54579215  0.07009520     0.01900
N105        N  0.04181082  0.44337227  0.46458384    -0.25000
N106        N  0.96928149  0.46900190  0.07374607    -0.25500
N107        N  0.04141613  0.46641367  0.43827730     0.01500
H108        H  0.06930233  0.39623106  0.47152904     0.07400
H109        H  0.06705229  0.53832307  0.38539074     0.07500
N110        N  0.04279095  0.56828443  0.04333466    -0.25500
N111        N  0.96537328  0.54266608  0.43901976    -0.25100
N112        N  0.04479027  0.44544038  0.04705266     0.01900
C113        C  0.92800434  0.57975502  0.08817991     0.43300
C114        C  0.94101142  0.42076253  0.46020225    -0.06400
N115        N  0.04056760  0.54321804  0.43697601    -0.25100
H116        H  0.93644093  0.53645476  0.38912053     0.07400
N117        N  0.94462329  0.55093092  0.09803845    -0.46400
H118        H  0.93636010  0.39796517  0.47595473     0.07400
C119        C  0.07849861  0.42909052  0.42015314     0.43100
C120        C  0.94505271  0.46231967  0.09904463    -0.05900
Co121      Co  0.00545064  0.44369942  0.00691371     0.73800
N122        N  0.94136643  0.46065925  0.41563435    -0.46100
C123        C  0.08399452  0.58141659  0.08301283     0.43400
N124        N  0.06926865  0.42232363  0.05338441    -0.46100
Co125      Co  0.00334913  0.50462494  0.43814621     0.73900
C126        C  0.06335833  0.55190302  0.41075137    -0.06400
C127        C  0.94328407  0.59131297  0.05388530    -0.06000
N128        N  0.04471649  0.46972390  0.07188656    -0.25500
N129        N  0.94282955  0.59097347  0.45756800    -0.46200
H130        H  0.07127262  0.61425176  0.03273979     0.07400
C131        C  0.06476184  0.41911546  0.45588127    -0.06400
Cl132      Cl  0.00487928  0.50580874  0.00538560    -0.49400
C133        C  0.92429654  0.43240815  0.42632686     0.43200
H134        H  0.07546898  0.47863507  0.12023799     0.07400
N135        N  0.06285351  0.45871884  0.41104508    -0.46100
C136        C  0.28658750  0.27598794  0.21649585     0.46000
H137        H  0.28253816  0.27037678  0.18704301    -0.03000
C138        C  0.29388662  0.28845435  0.28553227     0.46100
H139        H  0.29861824  0.29264291  0.31446768    -0.03000
C140        C  0.31389621  0.30347668  0.22372005    -0.16700
C141        C  0.25336147  0.29012043  0.23505537    -0.16500
C142        C  0.29905716  0.24508806  0.23900178    -0.16800
C143        C  0.31777456  0.31009034  0.26047933    -0.16800
C144        C  0.25645942  0.29593228  0.27245028    -0.16400
C145        C  0.30174334  0.25156449  0.27573154    -0.16700
C146        C  0.71615068  0.28793307  0.21668538     0.46000
H147        H  0.71687472  0.28459072  0.18650307    -0.03000
C148        C  0.71427583  0.29652913  0.28705947     0.46100
H149        H  0.71381111  0.30084997  0.31704439    -0.03000
C150        C  0.68927076  0.31433584  0.22879420    -0.16700
C151        C  0.70541792  0.25578658  0.23781269    -0.16500
C152        C  0.75094003  0.30043743  0.23298316    -0.16800
C153        C  0.68841522  0.31922200  0.26591857    -0.16800
C154        C  0.70613433  0.25980174  0.27540628    -0.16400
C155        C  0.74974692  0.30501258  0.27032886    -0.16700
C156        C  0.28539056  0.72165732  0.21962323     0.46000
H157        H  0.28294367  0.72210781  0.18935274    -0.03000
C158        C  0.28982378  0.72102463  0.29051521     0.46100
H159        H  0.29179769  0.72089996  0.32068632    -0.03000
C160        C  0.30993033  0.69388055  0.23397992    -0.16700
C161        C  0.29958562  0.75486165  0.23596853    -0.16500
C162        C  0.25060143  0.71418517  0.23889748    -0.16800
C163        C  0.31230885  0.69353445  0.27156931    -0.16800
C164        C  0.30201264  0.75453071  0.27352060    -0.16400
C165        C  0.25234809  0.71528503  0.27662898    -0.16700
C166        C  0.71231474  0.70652798  0.22080594     0.46000
H167        H  0.71496683  0.70373510  0.19075772    -0.03000
C168        C  0.70695081  0.71343914  0.29133755     0.46100
H169        H  0.70426696  0.71725375  0.32119405    -0.03000
C170        C  0.68560374  0.68237443  0.23823231    -0.16700
C171        C  0.74631851  0.69900077  0.24172692    -0.16500
C172        C  0.70057187  0.74224773  0.23228492    -0.16800
C173        C  0.68300687  0.68578630  0.27558401    -0.16800
C174        C  0.74382661  0.70299141  0.27920971    -0.16400
C175        C  0.69759738  0.74561480  0.26964336    -0.16700
C176        C  0.18206093  0.69880092  0.16608390    -0.01500
C177        C  0.17312974  0.66464828  0.17243935     0.07100
C178        C  0.18895161  0.64707009  0.20132478    -0.07400
C179        C  0.21343046  0.66278160  0.22384581     0.04600
C180        C  0.22244551  0.69711985  0.21777299    -0.14700
C181        C  0.20686662  0.71458114  0.18847341    -0.08000
C182        C  0.14849182  0.64583243  0.14876151     0.05500
C183        C  0.15742768  0.63962710  0.11215031    -0.09100
C184        C  0.13670033  0.61865686  0.09024378     0.00500
C185        C  0.10698231  0.60293901  0.10532126     0.00400
C186        C  0.09779648  0.60952898  0.14173261    -0.12700
C187        C  0.11799223  0.63118080  0.16331382     0.00800
C188        C  0.14708856  0.61262686  0.05282998     0.40200
C189        C  0.10655603  0.63873539  0.20004132     0.36800
C190        C  0.16570166  0.71821417  0.13726101     0.36500
C191        C  0.22968945  0.64215745  0.25165539     0.37300
N192        N  0.15522582  0.60772121  0.02281574    -0.43500
N193        N  0.09736741  0.64508787  0.22938528    -0.44000
N194        N  0.24173996  0.62459553  0.27368628    -0.41300
N195        N  0.15246940  0.73380924  0.11424352    -0.42800
H196        H  0.21404763  0.74062698  0.18314493     0.13400
H197        H  0.18261184  0.62057231  0.20579000     0.09900
H198        H  0.18104176  0.65056600  0.10096040     0.10900
H199        H  0.07436745  0.59835019  0.15307942     0.16800
C200        C  0.13094513  0.62175254  0.34452574    -0.01500
C201        C  0.14072256  0.65357411  0.35853469     0.07100
C202        C  0.12913842  0.66323618  0.39325687    -0.07400
C203        C  0.10883620  0.64135399  0.41461956     0.04600
C204        C  0.09924101  0.60899322  0.40091680    -0.14700
C205        C  0.11022511  0.59992514  0.36554093    -0.08000
C206        C  0.16846265  0.67384499  0.34079236     0.05500
C207        C  0.16062850  0.69741016  0.31315178    -0.09100
C208        C  0.18752810  0.71420871  0.29430299     0.00500
C209        C  0.22277021  0.70615847  0.30196570     0.00400
C210        C  0.22973880  0.68662870  0.33340603    -0.12700
C211        C  0.20321623  0.66959136  0.35187647     0.00800
C212        C  0.17847976  0.74140901  0.26957019     0.40200
C213        C  0.21225129  0.64654913  0.38122145     0.36800
C214        C  0.14340522  0.61026495  0.30941258     0.36500
C215        C  0.09969931  0.65265631  0.45092849     0.37300
N216        N  0.17126699  0.76368237  0.25030646    -0.43500
N217        N  0.21887388  0.62782101  0.40465212    -0.44000
N218        N  0.09265169  0.66197621  0.48000284    -0.41300
N219        N  0.15346711  0.60092333  0.28135593    -0.42800
H220        H  0.10339956  0.57542700  0.35436271     0.13400
H221        H  0.13747171  0.68737369  0.40441194     0.09900
H222        H  0.13366047  0.70253980  0.30625722     0.10900
H223        H  0.25586217  0.68352759  0.34339317     0.16800
C224        C  0.14793825  0.40694664  0.35038196    -0.01500
C225        C  0.14623936  0.37116455  0.34925451     0.07100
C226        C  0.12064508  0.35459547  0.36996612    -0.07400
C227        C  0.09781958  0.37286258  0.39253005     0.04600
C228        C  0.10054205  0.40862146  0.39497078    -0.14700
C229        C  0.12505602  0.42528795  0.37286196    -0.08000
C230        C  0.17332010  0.35056237  0.33013974     0.05500
C231        C  0.20706994  0.35083728  0.34424947    -0.09100
C232        C  0.23366123  0.33092274  0.32915853     0.00500
C233        C  0.22789174  0.31237135  0.29599588     0.00400
C234        C  0.19277539  0.30985265  0.28438909    -0.12700
C235        C  0.16582108  0.32849256  0.30097380     0.00800
C236        C  0.26407008  0.32798268  0.35203742     0.40200
C237        C  0.13070970  0.32450658  0.28756506     0.36800
C238        C  0.17313805  0.42540195  0.32888410     0.36500
C239        C  0.07128526  0.35415310  0.41188435     0.37300
N240        N  0.28742028  0.32581074  0.37200295    -0.43500
N241        N  0.10253145  0.32102135  0.27697408    -0.44000
N242        N  0.04999752  0.33898657  0.42720252    -0.41300
N243        N  0.19325341  0.44033389  0.31167259    -0.42800
H244        H  0.12702847  0.45270040  0.37392856     0.13400
H245        H  0.11906579  0.32714985  0.36920507     0.09900
H246        H  0.21223996  0.36563622  0.36868672     0.10900
H247        H  0.18593809  0.29281077  0.26241530     0.16800
C248        C  0.13850588  0.39591802  0.16344524    -0.01500
C249        C  0.16093030  0.37262383  0.14608725     0.07100
C250        C  0.15876127  0.36873093  0.10796165    -0.07400
C251        C  0.13497745  0.38781601  0.08706806     0.04600
C252        C  0.11272849  0.41147643  0.10436819    -0.14700
C253        C  0.11501349  0.41518903  0.14260576    -0.08000
C254        C  0.18599441  0.35149274  0.16747610     0.05500
C255        C  0.18204158  0.31603780  0.16788842    -0.09100
C256        C  0.20383549  0.29549550  0.18947138     0.00500
C257        C  0.22945471  0.31052173  0.21171287     0.00400
C258        C  0.23411659  0.34577491  0.21046684    -0.12700
C259        C  0.21308634  0.36620922  0.18823586     0.00800
C260        C  0.19875045  0.25925236  0.18952510     0.40200
C261        C  0.22057333  0.40203435  0.18639286     0.36800
C262        C  0.13831512  0.39966014  0.20279307     0.36500
C263        C  0.13465988  0.38311248  0.04790818     0.37300
N264        N  0.19471065  0.23018262  0.18975400    -0.43500
N265        N  0.22690922  0.43068486  0.18498076    -0.44000
N266        N  0.13459489  0.37919612  0.01652717    -0.41300
N267        N  0.13834140  0.40260677  0.23430381    -0.42800
H268        H  0.09780041  0.43264384  0.15658828     0.13400
H269        H  0.17586970  0.35081053  0.09446054     0.09900
H270        H  0.16155351  0.30447110  0.15175589     0.10900
H271        H  0.25458986  0.35730619  0.22667323     0.16800
C272        C  0.85248578  0.37299723  0.10554071    -0.01500
C273        C  0.85263870  0.37102718  0.14409315     0.07100
C274        C  0.87941428  0.38692137  0.16370600    -0.07400
C275        C  0.90502600  0.40578899  0.14574837     0.04600
C276        C  0.90382737  0.40939655  0.10729746    -0.14700
C277        C  0.87803266  0.39212746  0.08753146    -0.08000
C278        C  0.82508782  0.35310246  0.16497413     0.05500
C279        C  0.82154330  0.31782146  0.16172555    -0.09100
C280        C  0.79755928  0.29998484  0.18340451     0.00500
C281        C  0.77711308  0.31753689  0.20924018     0.00400
C282        C  0.78045863  0.35284267  0.21192499    -0.12700
C283        C  0.80387885  0.37068798  0.18999645     0.00800
C284        C  0.79621640  0.26361800  0.17998524     0.40200
C285        C  0.80530480  0.40714433  0.19334811     0.36800
C286        C  0.82601705  0.35636199  0.08401765     0.36500
C287        C  0.93322586  0.41939148  0.16733218     0.37300
N288        N  0.79638659  0.23443591  0.17689485    -0.43500
N289        N  0.80635798  0.43635411  0.19599994    -0.44000
N290        N  0.95596214  0.42994000  0.18471191    -0.41300
N291        N  0.80494522  0.34290251  0.06667716    -0.42800
H292        H  0.87747306  0.39416124  0.05799526     0.13400
H293        H  0.88030359  0.38444712  0.19327628     0.09900
H294        H  0.83811968  0.30413503  0.14283989     0.10900
H295        H  0.76468895  0.36650882  0.23134630     0.16800
C296        C  0.87718319  0.39879662  0.34257057    -0.01500
C297        C  0.84998644  0.37966845  0.35821936     0.07100
C298        C  0.84672926  0.37860125  0.39646143    -0.07400
C299        C  0.87029697  0.39585510  0.41910383     0.04600
C300        C  0.89807894  0.41438706  0.40355569    -0.14700
C301        C  0.90087831  0.41593574  0.36519658    -0.08000
C302        C  0.82436646  0.36102016  0.33518445     0.05500
C303        C  0.83544381  0.33294150  0.31465137    -0.09100
C304        C  0.81180741  0.31428953  0.29334788     0.00500
C305        C  0.77638698  0.32381896  0.29218801     0.00400
C306        C  0.76547264  0.35202940  0.31265701    -0.12700
C307        C  0.78901733  0.37059550  0.33391829     0.00800
C308        C  0.82426077  0.28471457  0.27426804     0.40200
C309        C  0.77641735  0.39989526  0.35349153     0.36800
C310        C  0.88057382  0.40196869  0.30335339     0.36500
C311        C  0.86407029  0.39572392  0.45799825     0.37300
N312        N  0.83437278  0.26096045  0.25909548    -0.43500
N313        N  0.76627389  0.42341155  0.36907696    -0.44000
N314        N  0.85869450  0.39583829  0.48913231    -0.41300
N315        N  0.88303917  0.40454021  0.27190401    -0.42800
H316        H  0.92180152  0.43038346  0.35279954     0.13400
H317        H  0.82548475  0.36442297  0.40863695     0.09900
H318        H  0.86256168  0.32528984  0.31574734     0.10900
H319        H  0.73848036  0.35989655  0.31175572     0.16800
C320        C  0.87128007  0.61808103  0.34876702    -0.01500
C321        C  0.85762879  0.64797895  0.36406389     0.07100
C322        C  0.86685137  0.65690805  0.39984090    -0.07400
C323        C  0.88916016  0.63635814  0.42066833     0.04600
C324        C  0.90264637  0.60593786  0.40556766    -0.14700
C325        C  0.89367329  0.59756223  0.36936951    -0.08000
C326        C  0.82968604  0.66722475  0.34531606     0.05500
C327        C  0.79571220  0.66272796  0.35779192    -0.09100
C328        C  0.76733374  0.67577880  0.33840947     0.00500
C329        C  0.77277543  0.69444504  0.30554548     0.00400
C330        C  0.80741338  0.70198947  0.29555356    -0.12700
C331        C  0.83570743  0.68769830  0.31440382     0.00800
C332        C  0.73362388  0.66756219  0.35309425     0.40200
C333        C  0.87048786  0.69315161  0.30072135     0.36800
C334        C  0.86118985  0.60690311  0.31269494     0.36500
C335        C  0.89659591  0.64691813  0.45766953     0.37300
N336        N  0.70766157  0.66050059  0.36717316    -0.43500
N337        N  0.89835782  0.69726492  0.28956782    -0.44000
N338        N  0.90228817  0.65577334  0.48725115    -0.41300
N339        N  0.85312635  0.59765976  0.28388854    -0.42800
H340        H  0.90362124  0.57461959  0.35700237     0.13400
H341        H  0.85573515  0.67958430  0.41187327     0.09900
H342        H  0.79125981  0.64732212  0.38201011     0.10900
H343        H  0.81245388  0.71764033  0.27173069     0.16800
C344        C  0.81691935  0.68448817  0.17119593    -0.01500
C345        C  0.82790968  0.65094290  0.17905319     0.07100
C346        C  0.81343430  0.63426316  0.20946363    -0.07400
C347        C  0.78714881  0.64935703  0.23038444     0.04600
C348        C  0.77612996  0.68278758  0.22236191    -0.14700
C349        C  0.79148676  0.70006984  0.19297565    -0.08000
C350        C  0.85344961  0.63238219  0.15543901     0.05500
C351        C  0.88560651  0.64754587  0.14700094    -0.09100
C352        C  0.90992218  0.63114350  0.12455303     0.00500
C353        C  0.90299333  0.59822376  0.11145162     0.00400
C354        C  0.87142551  0.58263341  0.12041633    -0.12700
C355        C  0.84640932  0.59955670  0.14149008     0.00800
C356        C  0.94210727  0.64830730  0.11600539     0.40200
C357        C  0.81334040  0.58295746  0.14711794     0.36800
C358        C  0.82979620  0.70292411  0.13984120     0.36500
C359        C  0.76955932  0.62864167  0.25723392     0.37300
N360        N  0.96784092  0.66210593  0.10899420    -0.43500
N361        N  0.78698613  0.56933355  0.15146615    -0.44000
N362        N  0.75546948  0.61164343  0.27839151    -0.41300
N363        N  0.84009706  0.71783220  0.11477773    -0.42800
H364        H  0.78274420  0.72552292  0.18633609     0.13400
H365        H  0.82163700  0.60863821  0.21595850     0.09900
H366        H  0.89180895  0.67231790  0.15801294     0.10900
H367        H  0.86588671  0.55746659  0.11000860     0.16800
C368        C  0.66106882  0.21790131  0.35584473    -0.01500
C369        C  0.66617440  0.18330101  0.34845016     0.07100
C370        C  0.68932824  0.17379438  0.32062342    -0.07400
C371        C  0.70539662  0.19844502  0.29857103     0.04600
C372        C  0.69662621  0.23305590  0.30290535    -0.14700
C373        C  0.67650382  0.24232060  0.33342381    -0.08000
C374        C  0.64663423  0.15701917  0.36892596     0.05500
C375        C  0.61562431  0.14457582  0.35394060    -0.09100
C376        C  0.59491710  0.12141065  0.37327256     0.00500
C377        C  0.60552198  0.10979408  0.40835982     0.00400
C378        C  0.63670134  0.12268114  0.42324115    -0.12700
C379        C  0.65707097  0.14615932  0.40394607     0.00800
C380        C  0.56283477  0.11055867  0.35632926     0.40200
C381        C  0.68843651  0.15911231  0.42064256     0.36800
C382        C  0.63905351  0.22900943  0.38550464     0.36500
C383        C  0.73218911  0.18787633  0.27338354     0.37300
N384        N  0.53707734  0.10201698  0.34271117    -0.43500
N385        N  0.71354131  0.16968856  0.43391154    -0.44000
N386        N  0.75405136  0.17957442  0.25355229    -0.41300
N387        N  0.62155701  0.23808588  0.40930869    -0.42800
H388        H  0.67125483  0.26858970  0.33916924     0.13400
H389        H  0.69479490  0.14714970  0.31615482     0.09900
H390        H  0.60727167  0.15350818  0.32721334     0.10900
H391        H  0.64533233  0.11467355  0.45012015     0.16800
C392        C  0.68998277  0.18839619  0.16543117    -0.01500
C393        C  0.65552790  0.17803990  0.17256504     0.07100
C394        C  0.63791836  0.19201655  0.20248671    -0.07400
C395        C  0.65364518  0.21646536  0.22478639     0.04600
C396        C  0.68815447  0.22735370  0.21749506    -0.14700
C397        C  0.70563074  0.21317545  0.18743580    -0.08000
C398        C  0.63733397  0.15224243  0.14982289     0.05500
C399        C  0.62699279  0.12175285  0.16638493    -0.09100
C400        C  0.60871828  0.09713924  0.14660711     0.00500
C401        C  0.60033710  0.10286599  0.10946804     0.00400
C402        C  0.61107714  0.13312987  0.09265109    -0.12700
C403        C  0.62904583  0.15798357  0.11261688     0.00800
C404        C  0.60016337  0.06562926  0.16466360     0.40200
C405        C  0.63745548  0.18968464  0.09486026     0.36800
C406        C  0.71000523  0.17339020  0.13623895     0.36500
C407        C  0.63295489  0.23007436  0.25415027     0.37300
N408        N  0.59349692  0.04028651  0.17905861    -0.43500
N409        N  0.64425783  0.21515190  0.08079114    -0.44000
N410        N  0.61575369  0.23972915  0.27791756    -0.41300
N411        N  0.72595795  0.16125078  0.11282998    -0.42800
H412        H  0.73175542  0.22141546  0.18119153     0.13400
H413        H  0.61141893  0.18404879  0.20814749     0.09900
H414        H  0.63338258  0.11713471  0.19489345     0.10900
H415        H  0.60455808  0.13774835  0.06417879     0.16800
C416        C  0.38342516  0.10854891  0.17108924    -0.01500
C417        C  0.36339890  0.13572290  0.15705454     0.07100
C418        C  0.36480041  0.14278894  0.11941953    -0.07400
C419        C  0.38573593  0.12355438  0.09586598     0.04600
C420        C  0.40564434  0.09623757  0.10981336    -0.14700
C421        C  0.40424946  0.08915012  0.14750860    -0.08000
C422        C  0.34485506  0.16008316  0.18140324     0.05500
C423        C  0.36473125  0.17867926  0.20634120    -0.09100
C424        C  0.35029385  0.20555529  0.22602084     0.00500
C425        C  0.31474071  0.21449411  0.22113089     0.00400
C426        C  0.29446554  0.19510986  0.19695869    -0.12700
C427        C  0.30913129  0.16792104  0.17738675     0.00800
C428        C  0.37380567  0.22443760  0.24896933     0.40200
C429        C  0.28705580  0.14817643  0.15364603     0.36800
C430        C  0.38298308  0.10005792  0.20956813     0.36500
C431        C  0.38809154  0.13407627  0.05808188     0.37300
N432        N  0.39382980  0.23822477  0.26730767    -0.43500
N433        N  0.26931561  0.13213051  0.13483507    -0.44000
N434        N  0.38996140  0.14305269  0.02796721    -0.41300
N435        N  0.38273441  0.09328559  0.24040947    -0.42800
H436        H  0.41925786  0.06819054  0.15858797     0.13400
H437        H  0.35054931  0.16437909  0.10862267     0.09900
H438        H  0.39231138  0.17320017  0.20913591     0.10900
H439        H  0.26723279  0.20145280  0.19309675     0.16800
C440        C  0.35528859  0.14169827  0.40571797    -0.01500
C441        C  0.35578244  0.14456133  0.36731665     0.07100
C442        C  0.37918829  0.12483014  0.34714090    -0.07400
C443        C  0.40299776  0.10333917  0.36471577     0.04600
C444        C  0.40389476  0.10176141  0.40346322    -0.14700
C445        C  0.37920651  0.12042585  0.42342719    -0.08000
C446        C  0.33697327  0.17211881  0.34815169     0.05500
C447        C  0.34961253  0.20503562  0.35268444    -0.09100
C448        C  0.33762039  0.23169193  0.33087996     0.00500
C449        C  0.31220974  0.22550460  0.30350812     0.00400
C450        C  0.29766675  0.19282484  0.30104568    -0.12700
C451        C  0.31003520  0.16611992  0.32283428     0.00800
C452        C  0.35447542  0.26397685  0.33588158     0.40200
C453        C  0.29474829  0.13295624  0.31868196     0.36800
C454        C  0.33047109  0.16044201  0.42735817     0.36500
C455        C  0.42504419  0.08256779  0.34199270     0.37300
N456        N  0.36874696  0.28928469  0.34124162    -0.43500
N457        N  0.28201216  0.10657479  0.31525619    -0.44000
N458        N  0.44234469  0.06593415  0.32332885    -0.41300
N459        N  0.31037766  0.17528861  0.44463108    -0.42800
H460        H  0.37892061  0.11878660  0.45306463     0.13400
H461        H  0.37955249  0.12705305  0.31752781     0.09900
H462        H  0.37041865  0.20955908  0.37220940     0.10900
H463        H  0.27725052  0.18791108  0.28122920     0.16800
C464        C  0.61891475  0.87051768  0.16140366    -0.01500
C465        C  0.64666395  0.85302834  0.14477187     0.07100
C466        C  0.65417912  0.85921568  0.10784130    -0.07400
C467        C  0.63447789  0.88244904  0.08730214     0.04600
C468        C  0.60630943  0.89991606  0.10375634    -0.14700
C469        C  0.59913586  0.89370664  0.14097586    -0.08000
C470        C  0.66500347  0.82510498  0.16414181     0.05500
C471        C  0.65642468  0.79186226  0.15475035    -0.09100
C472        C  0.66901644  0.76430047  0.17497533     0.00500
C473        C  0.69107232  0.76979433  0.20560452     0.00400
C474        C  0.70191603  0.80321919  0.21291764    -0.12700
C475        C  0.68869034  0.83078279  0.19291655     0.00800
C476        C  0.65661601  0.73145683  0.16397195     0.40200
C477        C  0.69917973  0.86462252  0.20290097     0.36800
C478        C  0.60941928  0.86400906  0.19902676     0.36500
C479        C  0.64310925  0.88659300  0.04912330     0.37300
N480        N  0.64559038  0.70626189  0.15278218    -0.43500
N481        N  0.70765473  0.89170818  0.21108370    -0.44000
N482        N  0.65037841  0.88955686  0.01855713    -0.41300
N483        N  0.60190314  0.85867028  0.22915734    -0.42800
H484        H  0.57793428  0.90683826  0.15436823     0.13400
H485        H  0.67507637  0.84522333  0.09481399     0.09900
H486        H  0.63841370  0.78752600  0.13232255     0.10900
H487        H  0.71984076  0.80797052  0.23525929     0.16800
C488        C  0.63334506  0.85047325  0.39341173    -0.01500
C489        C  0.63468889  0.85353457  0.35484690     0.07100
C490        C  0.61791753  0.88116600  0.33812217    -0.07400
C491        C  0.60065603  0.90578551  0.35899428     0.04600
C492        C  0.60037733  0.90339861  0.39766935    -0.14700
C493        C  0.61688715  0.87559742  0.41440992    -0.08000
C494        C  0.65208497  0.82762399  0.33127860     0.05500
C495        C  0.63236342  0.81094200  0.30437026    -0.09100
C496        C  0.64694966  0.78504036  0.28307088     0.00500
C497        C  0.68201542  0.77537542  0.28856385     0.00400
C498        C  0.70205041  0.79269569  0.31455270    -0.12700
C499        C  0.68765267  0.81902917  0.33535243     0.00800
C500        C  0.62456365  0.76673816  0.25823741     0.40200
C501        C  0.71012218  0.83725041  0.36012350     0.36800
C502        C  0.64745173  0.82113694  0.41197303     0.36500
C503        C  0.58434728  0.93370354  0.33988568     0.37300
N504        N  0.60660996  0.75190505  0.23850547    -0.43500
N505        N  0.72822023  0.85178806  0.37996450    -0.44000
N506        N  0.57120691  0.95603426  0.32456143    -0.41300
N507        N  0.65887524  0.79759892  0.42669237    -0.42800
H508        H  0.61619143  0.87303334  0.44394908     0.13400
H509        H  0.61845152  0.88358625  0.30855193     0.09900
H510        H  0.60507665  0.81733154  0.30092562     0.10900
H511        H  0.72907679  0.78556475  0.31858872     0.16800
C512        C  0.32671922  0.84391241  0.30221324    -0.01500
C513        C  0.35287991  0.83778549  0.32836535     0.07100
C514        C  0.36042407  0.80456239  0.33882618    -0.07400
C515        C  0.34314605  0.77716446  0.32308068     0.04600
C516        C  0.31805342  0.78274865  0.29515727    -0.14700
C517        C  0.30947666  0.81649288  0.28596524    -0.08000
C518        C  0.37216395  0.86522349  0.34685708     0.05500
C519        C  0.35581117  0.88281324  0.37521503    -0.09100
C520        C  0.37466081  0.90492869  0.39761093     0.00500
C521        C  0.41080309  0.90977179  0.39162019     0.00400
C522        C  0.42678469  0.89272070  0.36230295    -0.12700
C523        C  0.40782269  0.87051497  0.34009185     0.00800
C524        C  0.35591519  0.92210219  0.42632976     0.40200
C525        C  0.42544831  0.85288084  0.31085443     0.36800
C526        C  0.31776016  0.87795270  0.29112265     0.36500
C527        C  0.35182954  0.74433636  0.33768587     0.37300
N528        N  0.34061047  0.93574401  0.44924811    -0.43500
N529        N  0.43930599  0.83863350  0.28735635    -0.44000
N530        N  0.35915175  0.71914902  0.35201521    -0.41300
N531        N  0.31056460  0.90523873  0.28216238    -0.42800
H532        H  0.28951189  0.82146665  0.26564073     0.13400
H533        H  0.37989967  0.80007736  0.35987451     0.09900
H534        H  0.32840974  0.87836790  0.38059384     0.10900
H535        H  0.45434784  0.89602529  0.35712224     0.16800
C536        C  0.39232443  0.87753841  0.15947187    -0.01500
C537        C  0.37660039  0.84857637  0.14414376     0.07100
C538        C  0.38022865  0.84247899  0.10646744    -0.07400
C539        C  0.39914238  0.86491865  0.08409039     0.04600
C540        C  0.41445077  0.89416966  0.09943435    -0.14700
C541        C  0.41118441  0.89985309  0.13720519    -0.08000
C542        C  0.35692410  0.82420548  0.16738280     0.05500
C543        C  0.32044495  0.82282626  0.16474323    -0.09100
C544        C  0.30107894  0.80104751  0.18739321     0.00500
C545        C  0.31835755  0.77993633  0.21276739     0.00400
C546        C  0.35474284  0.78186225  0.21585440    -0.12700
C547        C  0.37405225  0.80353555  0.19334825     0.00800
C548        C  0.26357506  0.80248384  0.18591449     0.40200
C549        C  0.41149989  0.80343013  0.19671134     0.36800
C550        C  0.38887709  0.88512753  0.19794798     0.36500
C551        C  0.40402596  0.85652030  0.04599909     0.37300
N552        N  0.23351756  0.80440859  0.18509371    -0.43500
N553        N  0.44151815  0.80327266  0.19946758    -0.44000
N554        N  0.40824498  0.84966108  0.01554358    -0.41300
N555        N  0.38606330  0.89099919  0.22881490    -0.42800
H556        H  0.42282534  0.92222356  0.14930758     0.13400
H557        H  0.36870693  0.81990896  0.09467825     0.09900
H558        H  0.30708223  0.83931362  0.14550907     0.10900
H559        H  0.36815838  0.76569667  0.23534848     0.16800
C560        C  0.33329422  0.63223537  0.34687659    -0.01500
C561        C  0.37007162  0.63218155  0.34753519     0.07100
C562        C  0.38811084  0.64900745  0.31926909    -0.07400
C563        C  0.37004924  0.66815650  0.29281710     0.04600
C564        C  0.33329440  0.66906760  0.29345937    -0.14700
C565        C  0.31567044  0.64908282  0.31894689    -0.08000
C566        C  0.38949683  0.61470783  0.37755596     0.05500
C567        C  0.38051176  0.58121448  0.38626684    -0.09100
C568        C  0.39534998  0.56448119  0.41612851     0.00500
C569        C  0.42220715  0.58032029  0.43661309     0.00400
C570        C  0.43151111  0.61380341  0.42771633    -0.12700
C571        C  0.41508143  0.63120669  0.39891629     0.00800
C572        C  0.38194550  0.53116999  0.42482326     0.40200
C573        C  0.42456954  0.66610274  0.39240789     0.36800
C574        C  0.31277640  0.61745103  0.37593844     0.36500
C575        C  0.38975948  0.68887844  0.26771219     0.37300
N576        N  0.37086004  0.50467261  0.43189937    -0.43500
N577        N  0.43232530  0.69405207  0.38724420    -0.44000
N578        N  0.40585107  0.70560452  0.24792824    -0.41300
N579        N  0.29648422  0.60573541  0.39938770    -0.42800
H580        H  0.28779781  0.64741423  0.31774022     0.13400
H581        H  0.41633271  0.64849558  0.31885246     0.09900
H582        H  0.36114777  0.56813609  0.36991714     0.10900
H583        H  0.45188689  0.62640572  0.44309122     0.16800
C584        C  0.41038008  0.58004901  0.15947000    -0.01500
C585        C  0.37899865  0.59298425  0.14512408     0.07100
C586        C  0.36991015  0.58607680  0.10867365    -0.07400
C587        C  0.39207047  0.56706474  0.08621593     0.04600
C588        C  0.42373206  0.55450730  0.10051370    -0.14700
C589        C  0.43211319  0.56054505  0.13733610    -0.08000
C590        C  0.35806822  0.61756496  0.16619417     0.05500
C591        C  0.35974102  0.65160661  0.15585404    -0.09100
C592        C  0.34376155  0.67675922  0.17675298     0.00500
C593        C  0.32603153  0.66798832  0.20943097     0.00400
C594        C  0.32292158  0.63340608  0.21858457    -0.12700
C595        C  0.33878820  0.60826563  0.19734336     0.00800
C596        C  0.34672580  0.71092195  0.16318319     0.40200
C597        C  0.33472825  0.57317007  0.20776467     0.36800
C598        C  0.42213701  0.58864215  0.19585750     0.36500
C599        C  0.38164192  0.56067850  0.04888587     0.37300
N600        N  0.34960694  0.73735132  0.14975667    -0.43500
N601        N  0.33130309  0.54504005  0.21608158    -0.44000
N602        N  0.37317206  0.55555295  0.01900224    -0.41300
N603        N  0.43177207  0.59574651  0.22486191    -0.42800
H604        H  0.45665673  0.55144872  0.14838556     0.13400
H605        H  0.34593305  0.59639103  0.09752586     0.09900
H606        H  0.37435085  0.65862693  0.13157919     0.10900
H607        H  0.30799132  0.62589108  0.24235269     0.16800
C608        C  0.57843762  0.57331146  0.35521779    -0.01500
C609        C  0.60671668  0.59262319  0.36791084     0.07100
C610        C  0.61376594  0.59398656  0.40551952    -0.07400
C611        C  0.59182122  0.57816568  0.43084423     0.04600
C612        C  0.56182554  0.56076268  0.41839464    -0.14700
C613        C  0.55643703  0.55746650  0.38039691    -0.08000
C614        C  0.62611026  0.61557589  0.34331660     0.05500
C615        C  0.62148980  0.65047266  0.34802537    -0.09100
C616        C  0.63960924  0.67383274  0.32658746     0.00500
C617        C  0.66244723  0.66225417  0.29903635     0.00400
C618        C  0.66679184  0.62706982  0.29419601    -0.12700
C619        C  0.64906276  0.60373738  0.31623917     0.00800
C620        C  0.63483736  0.70915552  0.33501922     0.40200
C621        C  0.65570131  0.56798129  0.31154021     0.36800
C622        C  0.57022141  0.57113076  0.31669377     0.36500
C623        C  0.60016722  0.58175932  0.46918740     0.37300
N624        N  0.63042123  0.73692149  0.34396275    -0.43500
N625        N  0.66104350  0.53930816  0.30788841    -0.44000
N626        N  0.60716993  0.58471451  0.49983235    -0.41300
N627        N  0.56372995  0.56932070  0.28581900    -0.42800
H628        H  0.53420057  0.54344679  0.37016276     0.13400
H629        H  0.63574859  0.60875497  0.41516703     0.09900
H630        H  0.60390238  0.65950168  0.36910408     0.10900
H631        H  0.68465365  0.61778283  0.27358596     0.16800
C632        C  0.60275751  0.64331810  0.20129719    -0.01500
C633        C  0.61524092  0.62496053  0.17117415     0.07100
C634        C  0.65095285  0.62292148  0.16465447    -0.07400
C635        C  0.67457871  0.64015206  0.18682047     0.04600
C636        C  0.66229688  0.66022837  0.21615054    -0.14700
C637        C  0.62622451  0.66116975  0.22321445    -0.08000
C638        C  0.59171791  0.60990709  0.14401755     0.05500
C639        C  0.58211103  0.62952850  0.11365680    -0.09100
C640        C  0.56256496  0.61550803  0.08520728     0.00500
C641        C  0.55220616  0.58112533  0.08720842     0.00400
C642        C  0.56200925  0.56166567  0.11796164    -0.12700
C643        C  0.58170482  0.57576746  0.14618849     0.00800
C644        C  0.55464912  0.63680040  0.05406317     0.40200
C645        C  0.59167737  0.55477081  0.17692338     0.36800
C646        C  0.56608726  0.64444669  0.20984005     0.36500
C647        C  0.71078141  0.63721805  0.17730258     0.37300
N648        N  0.54845544  0.65387888  0.02907468    -0.43500
N649        N  0.59972300  0.53798612  0.20155612    -0.44000
N650        N  0.73919017  0.63401298  0.16749219    -0.41300
N651        N  0.53672927  0.64504866  0.21691483    -0.42800
H652        H  0.61616352  0.67678558  0.24516118     0.13400
H653        H  0.66030049  0.60852382  0.14136248     0.09900
H654        H  0.59058875  0.65571646  0.11189954     0.10900
H655        H  0.55412090  0.53535545  0.12022007     0.16800
C656        C  0.61886091  0.35487556  0.32770692    -0.01500
C657        C  0.62189524  0.39005688  0.32175174     0.07100
C658        C  0.64686236  0.40224201  0.29718300    -0.07400
C659        C  0.66882946  0.37988006  0.27849933     0.04600
C660        C  0.66602078  0.34453791  0.28465775    -0.14700
C661        C  0.64082660  0.33257165  0.30916070    -0.08000
C662        C  0.60070549  0.41445278  0.34278119     0.05500
C663        C  0.61683613  0.43281596  0.37080682    -0.09100
C664        C  0.59707239  0.45203499  0.39527607     0.00500
C665        C  0.56037846  0.45296468  0.39174864     0.00400
C666        C  0.54469811  0.43691833  0.36161112    -0.12700
C667        C  0.56455923  0.41765778  0.33723474     0.00800
C668        C  0.61509028  0.46976884  0.42418861     0.40200
C669        C  0.54725227  0.40046712  0.30748943     0.36800
C670        C  0.59382323  0.34109299  0.35316923     0.36500
C671        C  0.69400391  0.39431670  0.25375332     0.37300
N672        N  0.62956522  0.48391059  0.44737021    -0.43500
N673        N  0.53341935  0.38669304  0.28362998    -0.44000
N674        N  0.71341344  0.40718062  0.23392341    -0.41300
N675        N  0.57376226  0.32998579  0.37352952    -0.42800
H676        H  0.63732400  0.30561450  0.31280523     0.13400
H677        H  0.64929728  0.42936065  0.29281196     0.09900
H678        H  0.64479922  0.43086250  0.37455864     0.10900
H679        H  0.51663138  0.43761972  0.35829832     0.16800
C680        C  0.59360147  0.42808122  0.14445714    -0.01500
C681        C  0.61279929  0.40067151  0.13004763     0.07100
C682        C  0.61021841  0.39283489  0.09286129    -0.07400
C683        C  0.58850626  0.41160305  0.06987984     0.04600
C684        C  0.56900932  0.43898711  0.08421188    -0.14700
C685        C  0.57176625  0.44697591  0.12147842    -0.08000
C686        C  0.63282401  0.37766516  0.15397608     0.05500
C687        C  0.61455787  0.35878779  0.18005505    -0.09100
C688        C  0.63194412  0.33683170  0.20375575    -0.00300
C689        C  0.66857447  0.33398356  0.20188877     0.00400
C690        C  0.68660092  0.35142593  0.17427158    -0.12700
C691        C  0.66905403  0.37323900  0.15035065     0.00800
C692        C  0.61093812  0.31727318  0.22865022     0.40200
C693        C  0.68886726  0.39141309  0.12310009     0.36800
C694        C  0.59583071  0.43697471  0.18273309     0.36500
C695        C  0.58468084  0.40045185  0.03242551     0.37300
N696        N  0.59247813  0.30258748  0.24798328    -0.43500
N697        N  0.70490631  0.40578183  0.10122113    -0.44000
N698        N  0.58134250  0.39152050  0.00247811    -0.41300
N699        N  0.59774236  0.44382009  0.21345386    -0.42800
H700        H  0.55673522  0.46781401  0.13263765     0.13400
H701        H  0.62420523  0.37113650  0.08208925     0.09900
H702        H  0.58644375  0.36118805  0.18174436     0.10900
H703        H  0.71464087  0.34895862  0.17218727     0.16800
C704        C  0.40529677  0.42620877  0.35708773    -0.01500
C705        C  0.40247170  0.39080794  0.35380118     0.07100
C706        C  0.41747387  0.36966302  0.38059835    -0.07400
C707        C  0.43433464  0.38352625  0.41113681     0.04600
C708        C  0.43600518  0.41893839  0.41496254    -0.14700
C709        C  0.42190694  0.43991373  0.38750316    -0.08000
C710        C  0.38116449  0.37536888  0.32464210     0.05500
C711        C  0.39723260  0.35539710  0.29782992    -0.09100
C712        C  0.37714038  0.33615143  0.27351070     0.00500
C713        C  0.34049031  0.33652834  0.27663739     0.00400
C714        C  0.32478429  0.35981862  0.30025569    -0.12700
C715        C  0.34463690  0.37860214  0.32486469     0.00800
C716        C  0.39482765  0.31573354  0.24667656     0.40200
C717        C  0.32685298  0.39892957  0.35188202     0.36800
C718        C  0.39103781  0.44898731  0.32987837     0.36500
C719        C  0.44816650  0.36125336  0.43899949     0.37300
N720        N  0.40937516  0.30015372  0.22467719    -0.43500
N721        N  0.31268774  0.41510912  0.37365582    -0.44000
N722        N  0.45923713  0.34373082  0.46166078    -0.41300
N723        N  0.37948592  0.46739513  0.30832508    -0.42800
H724        H  0.42418107  0.46726170  0.38960214     0.13400
H725        H  0.41502764  0.34237256  0.37819072     0.09900
H726        H  0.42541712  0.35382617  0.29690349     0.10900
H727        H  0.29670698  0.36203572  0.30064207     0.16800
C728        C  0.37422122  0.40367514  0.08807591    -0.01500
C729        C  0.38825051  0.37978379  0.11273134     0.07100
C730        C  0.42395621  0.37255156  0.11170574    -0.07400
C731        C  0.44607802  0.38968076  0.08759515     0.04600
C732        C  0.43231477  0.41451219  0.06353569    -0.14700
C733        C  0.39627416  0.42092317  0.06387511    -0.08000
C734        C  0.36641213  0.36141961  0.13963767     0.05500
C735        C  0.36331687  0.32631163  0.13617425    -0.09100
C736        C  0.34594471  0.30702811  0.16255259     0.00500
C737        C  0.33089753  0.32303949  0.19344341     0.00400
C738        C  0.33256465  0.35864823  0.19571701    -0.12700
C739        C  0.35079342  0.37775640  0.16967963     0.00800
C740        C  0.34585161  0.27090218  0.15705679     0.40200
C741        C  0.35460755  0.41377039  0.17536297     0.36800
C742        C  0.33735037  0.41078424  0.08717118     0.36500
C743        C  0.48293439  0.38276599  0.09025929     0.37300
N744        N  0.34668037  0.24228923  0.15031332    -0.43500
N745        N  0.35778376  0.44260966  0.18004043    -0.44000
N746        N  0.51236812  0.37693947  0.09289993    -0.41300
N747        N  0.30777239  0.41639970  0.08663942    -0.42800
H748        H  0.38539688  0.43992675  0.04562697     0.13400
H749        H  0.43472476  0.35404969  0.13063599     0.09900
H750        H  0.37540184  0.31378060  0.11301463     0.10900
H751        H  0.32016384  0.37167438  0.21827409     0.16800
O752        O  0.51466093  0.46628384  0.57257589    -0.79600
O753        O  0.50496430  0.53953615  0.92995335    -0.79600
O754        O  0.54850220  0.46412475  0.95400276    -0.79600
O755        O  0.51377036  0.58234050  0.53547808    -0.79600
O756        O  0.50622153  0.47382137  0.91461217    -0.79700
O757        O  0.52674603  0.53230875  0.55918526    -0.79600
O758        O  0.54007564  0.54510290  0.97764238    -0.79600
O759        O  0.55150958  0.46287390  0.52794383    -0.79600
C760        C  0.54436855  0.45782737  0.56097444     1.10100
C761        C  0.53463714  0.54734303  0.94341897     1.10000
C762        C  0.53767913  0.46565073  0.92140699     1.10100
C763        C  0.52996997  0.56493083  0.55919828     1.10000
O764        O  0.46742234  0.51305917  0.59214808    -0.79600
O765        O  0.44232758  0.46369064  0.95595443    -0.79700
O766        O  0.48439287  0.42663400  0.52966735    -0.79600
O767        O  0.47177114  0.57233623  0.97629964    -0.79600
O768        O  0.43787026  0.53018888  0.96861273    -0.79600
O769        O  0.44703391  0.46817147  0.53961344    -0.79600
O770        O  0.45508237  0.54528843  0.54414146    -0.79600
O771        O  0.48450199  0.42648629  0.95480400    -0.79600
Co772      Co  0.48520086  0.50050713  0.54616399     1.51500
Co773      Co  0.47265543  0.50168122  0.94479535     1.51700
Co774      Co  0.51679547  0.44773874  0.99211869     1.51600
Co775      Co  0.49968490  0.54267870  0.51063241     1.51500
O776        O  0.49509506  0.49453328  0.49329178    -1.41500
C777        C  0.44971321  0.53670738  0.57795255     1.10000
C778        C  0.45402520  0.43568373  0.94542450     1.10100
C779        C  0.45514300  0.43715596  0.54189113     1.10100
C780        C  0.44356544  0.56099337  0.96350089     1.10000
C781        C  0.58416607  0.92460573  0.58324018     0.43000
N782        N  0.56941238  0.96466936  0.54617318     0.01900
C783        C  0.41722467  0.06018761  0.55036347    -0.06000
H784        H  0.39929530  0.93093957  0.52665809     0.07400
C785        C  0.46540394  0.94846047  0.90523467    -0.06300
Co786      Co  0.50430237  0.99987691  0.57065683     0.74200
N787        N  0.44369012  0.96258093  0.53895373    -0.25500
Co788      Co  0.44368327  0.00192322  0.50020275     0.74100
C789        C  0.43235175  0.93242137  0.91492536     0.43100
N790        N  0.54926785  0.97006670  0.93705698     0.01500
N791        N  0.44671274  0.96771926  0.95698402     0.01600
N792        N  0.45638462  0.05768524  0.59654193    -0.46400
H793        H  0.53532333  0.93356326  0.61873534     0.07400
N794        N  0.46658756  0.96219191  0.56594585     0.01900
N795        N  0.44508744  0.04103226  0.96163656     0.01600
C796        C  0.42851907  0.07986245  0.92410111     0.43300
N797        N  0.57227418  0.96810280  0.96388856    -0.25000
C798        C  0.54792399  0.06099787  0.59915877    -0.05900
N799        N  0.59406548  0.94194550  0.55300277    -0.46100
N800        N  0.41941306  0.06247130  0.95449048    -0.46300
C801        C  0.58002083  0.07792305  0.58809716     0.43000
N802        N  0.46434472  0.03608848  0.57005098     0.01900
N803        N  0.57231356  0.04205216  0.96816269    -0.25000
N804        N  0.54406570  0.96378287  0.57049203    -0.25500
N805        N  0.54903709  0.04392274  0.94168260     0.01500
H806        H  0.61907813  0.06994954  0.97984858     0.07400
H807        H  0.47819823  0.07333480  0.88917963     0.07500
N808        N  0.44149129  0.03668880  0.54305725    -0.25500
N809        N  0.47194336  0.97004375  0.93264709    -0.25100
N810        N  0.56816823  0.03874839  0.54945079     0.01900
C811        C  0.43357968  0.91948437  0.57711466     0.43300
C812        C  0.59463084  0.94281202  0.95627113    -0.06400
N813        N  0.47061331  0.04302485  0.93754950    -0.25100
H814        H  0.48057932  0.94632522  0.88043647     0.07400
N815        N  0.46109519  0.93730456  0.58961703    -0.46400
H816        H  0.61706875  0.93584047  0.97251367     0.07400
C817        C  0.58539935  0.08397821  0.92956205     0.43100
C818        C  0.55091683  0.93920703  0.59487088    -0.05900
Co819      Co  0.57124251  0.00328645  0.50695281     0.73800
N820        N  0.55486701  0.94758707  0.91087229    -0.46100
C821        C  0.42723479  0.07429003  0.58577911     0.43400
N822        N  0.59122167  0.06272921  0.55717991    -0.46100
Co823      Co  0.51041030  0.00696890  0.93672074     0.73900
C824        C  0.46280227  0.06722600  0.91302993    -0.06400
C825        C  0.42173898  0.93637534  0.54355969    -0.06000
N826        N  0.54261109  0.03725704  0.57359677    -0.25500
N827        N  0.42237226  0.94576882  0.94727230    -0.46200
H828        H  0.39427346  0.06513178  0.53401164     0.07400
C829        C  0.59615148  0.06641277  0.96310108    -0.06400
Cl830      Cl  0.50740293  0.00303884  0.50362632    -0.49400
C831        C  0.58304862  0.92935277  0.92092753     0.43200
H832        H  0.53195276  0.06510302  0.62310396     0.07400
N833        N  0.55608810  0.06834482  0.91787588    -0.46100
C834        C  0.92917768  0.43057731  0.58720571     0.43000
N835        N  0.96863622  0.44488591  0.54878518     0.01900
C836        C  0.06738706  0.59163517  0.54897930    -0.06000
H837        H  0.93813487  0.61418156  0.53845699     0.07400
C838        C  0.94107032  0.55046489  0.91401677    -0.06300
Co839      Co  0.00642141  0.50732461  0.57261729     0.74200
N840        N  0.96755081  0.56803624  0.54599579    -0.25500
Co841      Co  0.00410919  0.56778433  0.50396805     0.74100
C842        C  0.92609450  0.58271711  0.92634731     0.43100
N843        N  0.96567139  0.46658416  0.94057105     0.01500
N844        N  0.96552920  0.56647141  0.96428346     0.01600
N845        N  0.06760523  0.55319534  0.59508966    -0.46400
H846        H  0.94019870  0.47720566  0.62332744     0.07400
N847        N  0.96785588  0.54479098  0.57205933     0.01900
N848        N  0.04072505  0.56701417  0.96225158     0.01600
C849        C  0.07776734  0.58461589  0.92247928     0.43300
N850        N  0.96631700  0.44344553  0.96677622    -0.25000
C851        C  0.07020325  0.46364835  0.59612842    -0.05900
N852        N  0.94499963  0.42130835  0.55581514    -0.46100
N853        N  0.06221973  0.59214285  0.95449336    -0.46300
C854        C  0.08667986  0.43225667  0.58381088     0.43000
N855        N  0.04375895  0.54579607  0.57010110     0.01900
N856        N  0.04181459  0.44336134  0.96458426    -0.25000
N857        N  0.96929165  0.46900035  0.57375716    -0.25500
N858        N  0.04142248  0.46640209  0.93827686     0.01500
H859        H  0.06930777  0.39622119  0.97153347     0.07400
H860        H  0.06706603  0.53830437  0.88538552     0.07500
N861        N  0.04278848  0.56829063  0.54334311    -0.25500
N862        N  0.96538196  0.54265743  0.93900366    -0.25100
N863        N  0.04479942  0.44544845  0.54705018     0.01900
C864        C  0.92799552  0.57974128  0.58819685     0.43300
C865        C  0.94102817  0.42074255  0.96018382    -0.06400
N866        N  0.04057659  0.54320402  0.93696774    -0.25100
H867        H  0.93645268  0.53644994  0.88910103     0.07400
N868        N  0.94462218  0.55092088  0.59805348    -0.46400
H869        H  0.93638380  0.39794227  0.97593360     0.07400
C870        C  0.07851011  0.42908145  0.92015883     0.43100
C871        C  0.94506729  0.46231302  0.59905884    -0.05900
Co872      Co  0.00545312  0.44370671  0.50691755     0.73800
N873        N  0.94138392  0.46063675  0.91561341    -0.46100
C874        C  0.08399978  0.58141695  0.58301423     0.43400
N875        N  0.06928370  0.42233598  0.55337553    -0.46100
Co876      Co  0.00335614  0.50461338  0.93813713     0.73900
C877        C  0.06337060  0.55188581  0.91074500    -0.06400
C878        C  0.94327394  0.59130604  0.55390399    -0.06000
N879        N  0.04472594  0.46973079  0.57188545    -0.25500
N880        N  0.94284162  0.59096720  0.95754965    -0.46200
H881        H  0.07127181  0.61425674  0.53274615     0.07400
C882        C  0.06476804  0.41910521  0.95588492    -0.06400
Cl883      Cl  0.00487807  0.50581588  0.50539406    -0.49400
C884        C  0.92432053  0.43238020  0.92630174     0.43200
H885        H  0.07548667  0.47864664  0.62022990     0.07400
N886        N  0.06286455  0.45870861  0.91104854    -0.46100
C887        C  0.28660010  0.27599067  0.71648237     0.46000
H888        H  0.28255190  0.27037948  0.68702936    -0.03000
C889        C  0.29389672  0.28845673  0.78551883     0.46100
H890        H  0.29862905  0.29264464  0.81445396    -0.03000
C891        C  0.31391158  0.30347654  0.72370754    -0.16700
C892        C  0.25337467  0.29012765  0.73503979    -0.16500
C893        C  0.29906475  0.24508959  0.73898985    -0.16800
C894        C  0.31778747  0.31009020  0.76046699    -0.16800
C895        C  0.25647130  0.29593909  0.77243514    -0.16400
C896        C  0.30174920  0.25156622  0.77571959    -0.16700
C897        C  0.71614262  0.28792802  0.71667684     0.46000
H898        H  0.71685237  0.28459545  0.68649289    -0.03000
C899        C  0.71430361  0.29650273  0.78705485     0.46100
H900        H  0.71385504  0.30081513  0.81704147    -0.03000
C901        C  0.68926962  0.31432795  0.72880921    -0.16700
C902        C  0.70541843  0.25577620  0.73779797    -0.16500
C903        C  0.75094048  0.30042408  0.73295995    -0.16800
C904        C  0.68843282  0.31920342  0.76593602    -0.16800
C905        C  0.70615514  0.25977851  0.77539280    -0.16400
C906        C  0.74976644  0.30498988  0.77030694    -0.16700
C907        C  0.28539380  0.72165590  0.71962028     0.46000
H908        H  0.28294400  0.72210843  0.68935020    -0.03000
C909        C  0.28983061  0.72101946  0.79051164     0.46100
H910        H  0.29180539  0.72089284  0.82068255    -0.03000
C911        C  0.30993398  0.69387775  0.73397346    -0.16700
C912        C  0.29958970  0.75485974  0.73596677    -0.16500
C913        C  0.25060597  0.71418214  0.73889550    -0.16800
C914        C  0.31231426  0.69352960  0.77156317    -0.16800
C915        C  0.30201941  0.75452691  0.77351895    -0.16400
C916        C  0.25235409  0.71528050  0.77662676    -0.16700
C917        C  0.71230706  0.70652469  0.72081999     0.46000
H918        H  0.71496055  0.70373377  0.69077194    -0.03000
C919        C  0.70694239  0.71343403  0.79135185     0.46100
H920        H  0.70425955  0.71724718  0.82120875    -0.03000
C921        C  0.68559731  0.68236932  0.73824528    -0.16700
C922        C  0.74631092  0.69899824  0.74174035    -0.16500
C923        C  0.70056117  0.74224310  0.73229974    -0.16800
C924        C  0.68300006  0.68577994  0.77559761    -0.16800
C925        C  0.74381884  0.70298864  0.77922290    -0.16400
C926        C  0.69758575  0.74560959  0.76965845    -0.16700
C927        C  0.18206002  0.69880091  0.66608713    -0.01500
C928        C  0.17312506  0.66464979  0.67244562     0.07100
C929        C  0.18894745  0.64707074  0.70132986    -0.07400
C930        C  0.21343126  0.66277971  0.72384661     0.04600
C931        C  0.22244951  0.69711699  0.71777158    -0.14700
C932        C  0.20687004  0.71457891  0.68847279    -0.08000
C933        C  0.14848835  0.64583427  0.64876709     0.05500
C934        C  0.15742509  0.63963290  0.61215537    -0.09100
C935        C  0.13670039  0.61866238  0.59024706     0.00500
C936        C  0.10698529  0.60293925  0.60532387     0.00400
C937        C  0.09779849  0.60952496  0.64173582    -0.12700
C938        C  0.11799069  0.63117817  0.66331851     0.00800
C939        C  0.14708749  0.61263925  0.55283159     0.40200
C940        C  0.10655211  0.63872984  0.70004592     0.36800
C941        C  0.16570111  0.71821426  0.63726400     0.36500
C942        C  0.22969290  0.64215290  0.75165210     0.37300
N943        N  0.15522375  0.60774002  0.52281581    -0.43500
N944        N  0.09736048  0.64507967  0.72938953    -0.44000
N945        N  0.24174480  0.62458729  0.77367871    -0.41300
N946        N  0.15246907  0.73380873  0.61424591    -0.42800
H947        H  0.21405383  0.74062369  0.68314208     0.13400
H948        H  0.18260577  0.62057343  0.70579596     0.09900
H949        H  0.18103767  0.65057548  0.60096625     0.10900
H950        H  0.07437097  0.59834234  0.65308168     0.16800
C951        C  0.13095809  0.62173607  0.84451982    -0.01500
C952        C  0.14073564  0.65355701  0.85853040     0.07100
C953        C  0.12915572  0.66321597  0.89325493    -0.07400
C954        C  0.10885718  0.64133167  0.91461824     0.04600
C955        C  0.09925752  0.60897353  0.90091202    -0.14700
C956        C  0.11023831  0.59990782  0.86553429    -0.08000
C957        C  0.16847343  0.67383004  0.84078787     0.05500
C958        C  0.16063643  0.69739438  0.81314771    -0.09100
C959        C  0.18753383  0.71419686  0.79430003     0.00500
C960        C  0.22277717  0.70615138  0.80196358     0.00400
C961        C  0.22974791  0.68662139  0.83340330    -0.12700
C962        C  0.20322723  0.66958043  0.85187267     0.00800
C963        C  0.17848069  0.74139365  0.76956465     0.40200
C964        C  0.21226412  0.64653860  0.88121734     0.36800
C965        C  0.14341959  0.61024944  0.80940684     0.36500
C966        C  0.09973187  0.65262777  0.95093260     0.37300
N967        N  0.17126276  0.76366294  0.75029757    -0.43500
N968        N  0.21888686  0.62781071  0.90464818    -0.44000
N969        N  0.09269479  0.66194265  0.98001162    -0.41300
N970        N  0.15348359  0.60090858  0.78135072    -0.42800
H971        H  0.10341084  0.57541078  0.85435441     0.13400
H972        H  0.13749123  0.68735206  0.90441187     0.09900
H973        H  0.13366779  0.70252017  0.80625242     0.10900
H974        H  0.25587170  0.68352218  0.84339038     0.16800
C975        C  0.14795445  0.40695234  0.85038714    -0.01500
C976        C  0.14625786  0.37117048  0.84925285     0.07100
C977        C  0.12066710  0.35459597  0.86996423    -0.07400
C978        C  0.09784141  0.37285754  0.89253318     0.04600
C979        C  0.10055944  0.40861639  0.89497833    -0.14700
C980        C  0.12507136  0.42528818  0.87287129    -0.08000
C981        C  0.17333753  0.35057308  0.83013097     0.05500
C982        C  0.20708687  0.35084164  0.84424165    -0.09100
C983        C  0.23367619  0.33092710  0.82914708     0.00500
C984        C  0.22790532  0.31238169  0.79598039     0.00400
C985        C  0.19278922  0.30987143  0.78437030    -0.12700
C986        C  0.16583701  0.32851184  0.80095804     0.00800
C987        C  0.26408421  0.32798123  0.85202646     0.40200
C988        C  0.13072587  0.32453525  0.78754535     0.36800
C989        C  0.17315206  0.42541285  0.82889155     0.36500
C990        C  0.07131123  0.35414242  0.91188727     0.37300
N991        N  0.28743343  0.32580441  0.87199268    -0.43500
N992        N  0.10254779  0.32105820  0.77695069    -0.44000
N993        N  0.05002710  0.33897073  0.92720499    -0.41300
N994        N  0.19326566  0.44034899  0.81168196    -0.42800
H995        H  0.12704072  0.45270075  0.87394151     0.13400
H996        H  0.11909045  0.32715031  0.86919837     0.09900
H997        H  0.21225764  0.36563486  0.86868275     0.10900
H998        H  0.18594997  0.29283518  0.76239199     0.16800
C999        C  0.13852643  0.39592988  0.66342938    -0.01500
C1000       C  0.16095618  0.37264211  0.64606886     0.07100
C1001       C  0.15879330  0.36875774  0.60794162    -0.07400
C1002       C  0.13500883  0.38784375  0.58704952     0.04600
C1003       C  0.11275167  0.41149432  0.60435315    -0.14700
C1004       C  0.11503228  0.41520015  0.64259167    -0.08000
C1005       C  0.18601898  0.35150862  0.66745681     0.05500
C1006       C  0.18206886  0.31605329  0.66786003    -0.09100
C1007       C  0.20385900  0.29550841  0.68944442     0.00500
C1008       C  0.22947235  0.31053211  0.71169535     0.00400
C1009       C  0.23413250  0.34578578  0.71045763    -0.12700
C1010       C  0.21310508  0.36622302  0.68822678     0.00800
C1011       C  0.19877592  0.25926502  0.68948976     0.40200
C1012       C  0.22058729  0.40204966  0.68639692     0.36800
C1013       C  0.13833248  0.39966686  0.70277774     0.36500
C1014       C  0.13470016  0.38315390  0.54788761     0.37300
N1015       N  0.19473789  0.23019499  0.68971189    -0.43500
N1016       N  0.22691834  0.43070164  0.68499622    -0.44000
N1017       N  0.13464242  0.37925011  0.51650471    -0.41300
N1018       N  0.13835672  0.40261042  0.73428883    -0.42800
H1019       H  0.09781417  0.43264895  0.65657623     0.13400
H1020       H  0.17590713  0.35084380  0.59443818     0.09900
H1021       H  0.16158512  0.30448825  0.65172006     0.10900
H1022       H  0.25460163  0.35731532  0.72667133     0.16800
C1023       C  0.85251651  0.37296567  0.60552397    -0.01500
C1024       C  0.85263936  0.37101579  0.64407753     0.07100
C1025       C  0.87939369  0.38692969  0.66370393    -0.07400
C1026       C  0.90501119  0.40579913  0.64575810     0.04600
C1027       C  0.90384084  0.40938731  0.60730422    -0.14700
C1028       C  0.87807036  0.39209574  0.58752606    -0.08000
C1029       C  0.82508053  0.35309045  0.66494651     0.05500
C1030       C  0.82154357  0.31780775  0.66170454    -0.09100
C1031       C  0.79755680  0.29997126  0.68338036     0.00500
C1032       C  0.77710503  0.31752463  0.70920950     0.00400
C1033       C  0.78043988  0.35283152  0.71188534    -0.12700
C1034       C  0.80385866  0.37067736  0.68995607     0.00800
C1035       C  0.79621201  0.26360405  0.67996322     0.40200
C1036       C  0.80527077  0.40713531  0.69329519     0.36800
C1037       C  0.82607158  0.35631043  0.58398682     0.36500
C1038       C  0.93318876  0.41942151  0.66735934     0.37300
N1039       N  0.79637489  0.23442153  0.67687630    -0.43500
N1040       N  0.80631246  0.43634629  0.69593698    -0.44000
N1041       N  0.95590684  0.42998539  0.68475443    -0.41300
N1042       N  0.80501922  0.34283553  0.56663430    -0.42800
H1043       H  0.87753554  0.39411064  0.55798798     0.13400
H1044       H  0.88026178  0.38446936  0.69327611     0.09900
H1045       H  0.83812766  0.30412026  0.64282737     0.10900
H1046       H  0.76466353  0.36649739  0.73130094     0.16800
C1047       C  0.87722899  0.39876262  0.84253368    -0.01500
C1048       C  0.85003606  0.37962539  0.85817653     0.07100
C1049       C  0.84678039  0.37854503  0.89641805    -0.07400
C1050       C  0.87034234  0.39579915  0.91906616     0.04600
C1051       C  0.89811510  0.41434899  0.90352410    -0.14700
C1052       C  0.90091651  0.41590571  0.86516530    -0.08000
C1053       C  0.82441220  0.36098701  0.83513769     0.05500
C1054       C  0.83548031  0.33290683  0.81460179    -0.09100
C1055       C  0.81183541  0.31425901  0.79330412     0.00500
C1056       C  0.77641636  0.32379461  0.79215365     0.00400
C1057       C  0.76551237  0.35200862  0.81262234    -0.12700
C1058       C  0.78906528  0.37057049  0.83387740     0.00800
C1059       C  0.82427800  0.28468023  0.77422352     0.40200
C1060       C  0.77647578  0.39987292  0.85345341     0.36800
C1061       C  0.88062343  0.40193961  0.80331744     0.36500
C1062       C  0.86412030  0.39564508  0.95796132     0.37300
N1063       N  0.83438189  0.26092259  0.75905142    -0.43500
N1064       N  0.76634171  0.42339158  0.86904141    -0.44000
N1065       N  0.85874992  0.39573758  0.98909657    -0.41300
N1066       N  0.88309298  0.40451436  0.77186875    -0.42800
H1067       H  0.92183488  0.43036348  0.85277289     0.13400
H1068       H  0.82554028  0.36435689  0.90858879     0.09900
H1069       H  0.86259665  0.32524933  0.81569316     0.10900
H1070       H  0.73852131  0.35988030  0.81172756     0.16800
C1071       C  0.87127909  0.61807825  0.84875873    -0.01500
C1072       C  0.85763114  0.64797609  0.86405915     0.07100
C1073       C  0.86686243  0.65690575  0.89983321    -0.07400
C1074       C  0.88917599  0.63635601  0.92065491     0.04600
C1075       C  0.90265802  0.60593485  0.90555158    -0.14700
C1076       C  0.89367714  0.59755918  0.86935561    -0.08000
C1077       C  0.82968488  0.66722249  0.84531803     0.05500
C1078       C  0.79571234  0.66272106  0.85779623    -0.09100
C1079       C  0.76733117  0.67577206  0.83841804     0.00500
C1080       C  0.77276910  0.69444292  0.80555657     0.00400
C1081       C  0.80740546  0.70199201  0.79556315    -0.12700
C1082       C  0.83570212  0.68770106  0.81440886     0.00800
C1083       C  0.73362277  0.66755022  0.85310308     0.40200
C1084       C  0.87048093  0.69315905  0.80072413     0.36800
C1085       C  0.86118020  0.60690096  0.81268917     0.36500
C1086       C  0.89662101  0.64691769  0.95765345     0.37300
N1087       N  0.70766204  0.66048342  0.86718215    -0.43500
N1088       N  0.89834958  0.69727625  0.78956867    -0.44000
N1089       N  0.90232068  0.65577465  0.98723287    -0.41300
N1090       N  0.85310913  0.59765855  0.78388476    -0.42800
H1091       H  0.90362209  0.57461610  0.85698670     0.13400
H1092       H  0.85574942  0.67958241  0.91186802     0.09900
H1093       H  0.79126320  0.64731138  0.88201225     0.10900
H1094       H  0.81244259  0.71764602  0.77174180     0.16800
C1095       C  0.81691754  0.68447720  0.67121624    -0.01500
C1096       C  0.82789779  0.65092793  0.67906924     0.07100
C1097       C  0.81341295  0.63424734  0.70947409    -0.07400
C1098       C  0.78713040  0.64934612  0.73039531     0.04600
C1099       C  0.77612096  0.68278044  0.72237640    -0.14700
C1100       C  0.79148567  0.70006233  0.69299443    -0.08000
C1101       C  0.85343907  0.63236553  0.65545763     0.05500
C1102       C  0.88560265  0.64752272  0.64703386    -0.09100
C1103       C  0.90992010  0.63111955  0.62458864     0.00500
C1104       C  0.90298467  0.59820642  0.61147245     0.00400
C1105       C  0.87141027  0.58262156  0.62042351    -0.12700
C1106       C  0.84639388  0.59954505  0.64149755     0.00800
C1107       C  0.94211432  0.64827470  0.61605883     0.40200
C1108       C  0.81332022  0.58295164  0.64711493     0.36800
C1109       C  0.82980458  0.70291445  0.63986710     0.36500
C1110       C  0.76953645  0.62863376  0.75724406     0.37300
N1111       N  0.96785633  0.66206471  0.60906182    -0.43500
N1112       N  0.78696208  0.56933267  0.65145538    -0.44000
N1113       N  0.75544414  0.61163773  0.77840186    -0.41300
N1114       N  0.84011358  0.71782365  0.61480815    -0.42800
H1115       H  0.78275053  0.72551834  0.68635745     0.13400
H1116       H  0.82160751  0.60861920  0.71596547     0.09900
H1117       H  0.89180897  0.67229021  0.65805527     0.10900
H1118       H  0.86586703  0.55745942  0.61000542     0.16800
C1119       C  0.66110602  0.21785562  0.85582411    -0.01500
C1120       C  0.66619527  0.18325904  0.84840741     0.07100
C1121       C  0.68934622  0.17375564  0.82057683    -0.07400
C1122       C  0.70541626  0.19841200  0.79853150     0.04600
C1123       C  0.69665651  0.23302372  0.80288578    -0.14700
C1124       C  0.67654748  0.24228111  0.83341667    -0.08000
C1125       C  0.64665163  0.15698271  0.86888475     0.05500
C1126       C  0.61546951  0.14477592  0.85406846    -0.09100
C1127       C  0.59475663  0.12164421  0.87343977     0.00500
C1128       C  0.60552982  0.10981487  0.90838775     0.00400
C1129       C  0.63687801  0.12247675  0.92310727    -0.12700
C1130       C  0.65725142  0.14592967  0.90377903     0.00800
C1131       C  0.56247766  0.11107476  0.85670140     0.40200
C1132       C  0.68877879  0.15867870  0.92032231     0.36800
C1133       C  0.63911155  0.22895166  0.88550625     0.36500
C1134       C  0.73219821  0.18784781  0.77332912     0.37300
N1135       N  0.53656244  0.10276269  0.84324869    -0.43500
N1136       N  0.71401278  0.16909817  0.93346547    -0.44000
N1137       N  0.75405224  0.17954988  0.75348589    -0.41300
N1138       N  0.62162925  0.23801260  0.90932860    -0.42800
H1139       H  0.67131355  0.26854787  0.83918228     0.13400
H1140       H  0.69480436  0.14711138  0.81609572     0.09900
H1141       H  0.60698745  0.15387336  0.82745074     0.10900
H1142       H  0.64564535  0.11430820  0.94988064     0.16800
C1143       C  0.68992218  0.18843826  0.66537733    -0.01500
C1144       C  0.65547908  0.17806695  0.67254448     0.07100
C1145       C  0.63789359  0.19202128  0.70249322    -0.07400
C1146       C  0.65363512  0.21646220  0.72479158     0.04600
C1147       C  0.68813917  0.22735479  0.71747771    -0.14700
C1148       C  0.70558969  0.21320020  0.68738851    -0.08000
C1149       C  0.63727824  0.15227223  0.64980800     0.05500
C1150       C  0.62701323  0.12174983  0.66635104    -0.09100
C1151       C  0.60875938  0.09712417  0.64657008     0.00500
C1152       C  0.60032317  0.10287305  0.60944887     0.00400
C1153       C  0.61098216  0.13317333  0.59265218    -0.12700
C1154       C  0.62892946  0.15803826  0.61262185     0.00800
C1155       C  0.60028253  0.06558182  0.66460165     0.40200
C1156       C  0.63725617  0.18977344  0.59489298     0.36800
C1157       C  0.70990993  0.17346890  0.63613694     0.36500
C1158       C  0.63296151  0.23006503  0.75417205     0.37300
N1159       N  0.59368054  0.04021399  0.67897814    -0.43500
N1160       N  0.64398975  0.21526888  0.58084669    -0.44000
N1161       N  0.61577240  0.23971745  0.77795017    -0.41300
N1162       N  0.72583154  0.16135859  0.61268709    -0.42800
H1163       H  0.73170699  0.22144938  0.68112141     0.13400
H1164       H  0.61140107  0.18404445  0.70817452     0.09900
H1165       H  0.63345002  0.11711427  0.69484470     0.10900
H1166       H  0.60441622  0.13780938  0.56419496     0.16800
C1167       C  0.38343311  0.10855359  0.67107497    -0.01500
C1168       C  0.36340228  0.13572380  0.65703839     0.07100
C1169       C  0.36479827  0.14278371  0.61940171    -0.07400
C1170       C  0.38573295  0.12354735  0.59584884     0.04600
C1171       C  0.40564497  0.09623384  0.60979818    -0.14700
C1172       C  0.40425494  0.08915193  0.64749472    -0.08000
C1173       C  0.34485914  0.16008606  0.68138617     0.05500
C1174       C  0.36473483  0.17867798  0.70632845    -0.09100
C1175       C  0.35029760  0.20555118  0.72601268     0.00500
C1176       C  0.31474584  0.21449391  0.72112038     0.00400
C1177       C  0.29447122  0.19511476  0.69694296    -0.12700
C1178       C  0.30913610  0.16792713  0.67736835     0.00800
C1179       C  0.37380893  0.22442648  0.74896845     0.40200
C1180       C  0.28705992  0.14818689  0.65362410     0.36800
C1181       C  0.38300156  0.10007161  0.70955632     0.36500
C1182       C  0.38808557  0.13406544  0.55806337     0.37300
N1183       N  0.39383329  0.23820714  0.76731222    -0.43500
N1184       N  0.26931882  0.13214468  0.63481044    -0.44000
N1185       N  0.38995379  0.14303889  0.52794759    -0.41300
N1186       N  0.38276259  0.09330822  0.74040001    -0.42800
H1187       H  0.41926676  0.06819553  0.65857593     0.13400
H1188       H  0.35054452  0.16437132  0.60860279     0.09900
H1189       H  0.39231445  0.17319726  0.70912430     0.10900
H1190       H  0.26723954  0.20146079  0.69307900     0.16800
C1191       C  0.35523767  0.14167737  0.90571791    -0.01500
C1192       C  0.35574080  0.14454953  0.86731753     0.07100
C1193       C  0.37915047  0.12482137  0.84714326    -0.07400
C1194       C  0.40295774  0.10332825  0.86471900     0.04600
C1195       C  0.40385088  0.10174646  0.90346645    -0.14700
C1196       C  0.37915430  0.12040325  0.92342851    -0.08000
C1197       C  0.33694001  0.17211393  0.84815364     0.05500
C1198       C  0.34959261  0.20502640  0.85268363    -0.09100
C1199       C  0.33761337  0.23168541  0.83087446     0.00500
C1200       C  0.31220429  0.22550476  0.80349917     0.00400
C1201       C  0.29764726  0.19283101  0.80103989    -0.12700
C1202       C  0.31000030  0.16612407  0.82283549     0.00800
C1203       C  0.35447903  0.26396522  0.83587524     0.40200
C1204       C  0.29469461  0.13296799  0.81869085     0.36800
C1205       C  0.33041389  0.16041588  0.92735542     0.36500
C1206       C  0.42500591  0.08255852  0.84199632     0.37300
N1207       N  0.36875868  0.28926890  0.84123434    -0.43500
N1208       N  0.28194206  0.10659334  0.81527174    -0.44000
N1209       N  0.44230680  0.06592570  0.82333203    -0.41300
N1210       N  0.31031509  0.17525856  0.94462542    -0.42800
H1211       H  0.37886324  0.11875975  0.95306570     0.13400
H1212       H  0.37952018  0.12704913  0.81753063     0.09900
H1213       H  0.37039903  0.20954356  0.87220992     0.10900
H1214       H  0.27723083  0.18792354  0.78122170     0.16800
C1215       C  0.61891951  0.87052242  0.66141450    -0.01500
C1216       C  0.64666083  0.85302354  0.64477973     0.07100
C1217       C  0.65417656  0.85921022  0.60784910    -0.07400
C1218       C  0.63448327  0.88245217  0.58731285     0.04600
C1219       C  0.60632375  0.89992975  0.60377047    -0.14700
C1220       C  0.59915107  0.89372271  0.64099056    -0.08000
C1221       C  0.66499748  0.82509893  0.66415095     0.05500
C1222       C  0.65642436  0.79185567  0.65475515    -0.09100
C1223       C  0.66901323  0.76429414  0.67498320     0.00500
C1224       C  0.69106088  0.76978928  0.70561909     0.00400
C1225       C  0.70189963  0.80321466  0.71293603    -0.12700
C1226       C  0.68867620  0.83077745  0.69293280     0.00800
C1227       C  0.65662034  0.73144931  0.66397398     0.40200
C1228       C  0.69915913  0.86461768  0.70292260     0.36800
C1229       C  0.60941705  0.86400736  0.69903443     0.36500
C1230       C  0.64311026  0.88659233  0.54913248     0.37300
N1231       N  0.64560217  0.70625292  0.65277975    -0.43500
N1232       N  0.70762779  0.89170410  0.71110954    -0.44000
N1233       N  0.65037375  0.88955357  0.51856456    -0.41300
N1234       N  0.60189472  0.85866057  0.72916167    -0.42800
H1235       H  0.57795550  0.90686192  0.65438490     0.13400
H1236       H  0.67506760  0.84521099  0.59481951     0.09900
H1237       H  0.63842001  0.78751872  0.63232167     0.10900
H1238       H  0.71981944  0.80796710  0.73528169     0.16800
C1239       C  0.63332215  0.85047801  0.89341608    -0.01500
C1240       C  0.63465678  0.85353020  0.85485007     0.07100
C1241       C  0.61787997  0.88115711  0.83812277    -0.07400
C1242       C  0.60062504  0.90578255  0.85899343     0.04600
C1243       C  0.60036001  0.90340763  0.89766974    -0.14700
C1244       C  0.61687262  0.87560893  0.91441265    -0.08000
C1245       C  0.65205530  0.82761755  0.83128508     0.05500
C1246       C  0.63233548  0.81092465  0.80438299    -0.09100
C1247       C  0.64692741  0.78502293  0.78308698     0.00500
C1248       C  0.68199632  0.77536765  0.78857838     0.00400
C1249       C  0.70202878  0.79269810  0.81456140    -0.12700
C1250       C  0.68762595  0.81903282  0.83535590     0.00800
C1251       C  0.62454618  0.76671246  0.75825584     0.40200
C1252       C  0.71009367  0.83726786  0.86011686     0.36800
C1253       C  0.64742911  0.82114333  0.91198015     0.36500
C1254       C  0.58430727  0.93369330  0.83988110     0.37300
N1255       N  0.60659776  0.75187220  0.73852490    -0.43500
N1256       N  0.72818983  0.85181773  0.87994926    -0.44000
N1257       N  0.57115871  0.95601761  0.82455374    -0.41300
N1258       N  0.65885162  0.79760545  0.92670055    -0.42800
H1259       H  0.61618552  0.87305186  0.94395271     0.13400
H1260       H  0.61840545  0.88356985  0.80855167     0.09900
H1261       H  0.60504684  0.81730691  0.80093942     0.10900
H1262       H  0.72905777  0.78557566  0.81859533     0.16800
C1263       C  0.32671262  0.84391114  0.80222276    -0.01500
C1264       C  0.35286442  0.83778658  0.82838547     0.07100
C1265       C  0.36040818  0.80456353  0.83884756    -0.07400
C1266       C  0.34314065  0.77716376  0.82309131     0.04600
C1267       C  0.31805597  0.78274621  0.79515907    -0.14700
C1268       C  0.30947801  0.81649027  0.78596730    -0.08000
C1269       C  0.37214901  0.86522690  0.84687503     0.05500
C1270       C  0.35580706  0.88280322  0.87524940    -0.09100
C1271       C  0.37466103  0.90492301  0.89763696     0.00500
C1272       C  0.41079724  0.90978558  0.89162125     0.00400
C1273       C  0.42676714  0.89274838  0.86228699    -0.12700
C1274       C  0.40780076  0.87053651  0.84008534     0.00800
C1275       C  0.35592630  0.92207933  0.92637566     0.40200
C1276       C  0.42541482  0.85291138  0.81083397     0.36800
C1277       C  0.31775487  0.87795049  0.79112787     0.36500
C1278       C  0.35183057  0.74433452  0.83768972     0.37300
N1279       N  0.34063230  0.93570786  0.94931114    -0.43500
N1280       N  0.43926073  0.83866885  0.78732482    -0.44000
N1281       N  0.35915775  0.71914489  0.85201158    -0.41300
N1282       N  0.31055965  0.90523521  0.78216268    -0.42800
H1283       H  0.28951820  0.82146335  0.76563737     0.13400
H1284       H  0.37987884  0.80007965  0.85990122     0.09900
H1285       H  0.32841135  0.87834428  0.88064704     0.10900
H1286       H  0.45432507  0.89606736  0.85708646     0.16800
C1287       C  0.39232131  0.87753748  0.65945771    -0.01500
C1288       C  0.37658239  0.84858321  0.64412892     0.07100
C1289       C  0.38020049  0.84248989  0.60645057    -0.07400
C1290       C  0.39912069  0.86492446  0.58407319     0.04600
C1291       C  0.41444749  0.89416566  0.59941945    -0.14700
C1292       C  0.41118921  0.89984576  0.63719139    -0.08000
C1293       C  0.35690976  0.82421134  0.66737130     0.05500
C1294       C  0.32042983  0.82283147  0.66474153    -0.09100
C1295       C  0.30106982  0.80105069  0.68739564     0.00500
C1296       C  0.31835507  0.77993819  0.71276390     0.00400
C1297       C  0.35474088  0.78186466  0.71584085    -0.12700
C1298       C  0.37404425  0.80353963  0.69333062     0.00800
C1299       C  0.26356546  0.80248615  0.68592789     0.40200
C1300       C  0.41149272  0.80343506  0.69668339     0.36800
C1301       C  0.38888177  0.88512592  0.69793464     0.36500
C1302       C  0.40399052  0.85653053  0.54597864     0.37300
N1303       N  0.23350766  0.80440977  0.68511687    -0.43500
N1304       N  0.44151172  0.80327995  0.69943055    -0.44000
N1305       N  0.40819757  0.84967498  0.51552027    -0.41300
N1306       N  0.38607432  0.89099848  0.72880196    -0.42800
H1307       H  0.42284217  0.92220963  0.64929525     0.13400
H1308       H  0.36866696  0.81992610  0.59466019     0.09900
H1309       H  0.30706204  0.83931966  0.64551216     0.10900
H1310       H  0.36816148  0.76569823  0.73533018     0.16800
C1311       C  0.33329477  0.63222102  0.84686438    -0.01500
C1312       C  0.37007216  0.63216601  0.84752495     0.07100
C1313       C  0.38811287  0.64899608  0.81926266    -0.07400
C1314       C  0.37005289  0.66814994  0.79281336     0.04600
C1315       C  0.33329812  0.66905992  0.79345195    -0.14700
C1316       C  0.31567261  0.64907214  0.81893582    -0.08000
C1317       C  0.38949575  0.61469129  0.87754690     0.05500
C1318       C  0.38050835  0.58119869  0.88625981    -0.09100
C1319       C  0.39534330  0.56446679  0.91612458     0.00500
C1320       C  0.42220052  0.58030563  0.93660924     0.00400
C1321       C  0.43150716  0.61378732  0.92771011    -0.12700
C1322       C  0.41508003  0.63118981  0.89890814     0.00800
C1323       C  0.38193427  0.53115835  0.92482413     0.40200
C1324       C  0.42456985  0.66608536  0.89239989     0.36800
C1325       C  0.31277569  0.61743647  0.87592506     0.36500
C1326       C  0.38976427  0.68888101  0.76771832     0.37300
N1327       N  0.37084494  0.50466353  0.93190470    -0.43500
N1328       N  0.43232720  0.69403434  0.88723676    -0.44000
N1329       N  0.40585643  0.70561606  0.74794375    -0.41300
N1330       N  0.29648366  0.60572084  0.89937442    -0.42800
H1331       H  0.28779982  0.64740549  0.81772859     0.13400
H1332       H  0.41633474  0.64848507  0.81884821     0.09900
H1333       H  0.36114430  0.56812030  0.86991015     0.10900
H1334       H  0.45188274  0.62638959  0.94308537     0.16800
C1335       C  0.41037526  0.58005616  0.65945117    -0.01500
C1336       C  0.37899151  0.59298489  0.64510390     0.07100
C1337       C  0.36990225  0.58606939  0.60865534    -0.07400
C1338       C  0.39206406  0.56705489  0.58620133     0.04600
C1339       C  0.42372821  0.55450527  0.60050060    -0.14700
C1340       C  0.43211025  0.56055118  0.63732080    -0.08000
C1341       C  0.35805759  0.61756376  0.66617284     0.05500
C1342       C  0.35972423  0.65160527  0.65583097    -0.09100
C1343       C  0.34375007  0.67675733  0.67673553     0.00500
C1344       C  0.32603108  0.66798585  0.70942034     0.00400
C1345       C  0.32292481  0.63340332  0.71857424    -0.12700
C1346       C  0.33878685  0.60826370  0.69732816     0.00800
C1347       C  0.34670827  0.71092042  0.66316487     0.40200
C1348       C  0.33473366  0.57316792  0.70775195     0.36800
C1349       C  0.42213203  0.58865672  0.69583664     0.36500
C1350       C  0.38163386  0.56065552  0.54887438     0.37300
N1351       N  0.34958211  0.73735102  0.64973932    -0.43500
N1352       N  0.33131452  0.54503766  0.71607064    -0.44000
N1353       N  0.37316287  0.55551815  0.51899351    -0.41300
N1354       N  0.43176626  0.59576724  0.72483953    -0.42800
H1355       H  0.45665566  0.55146029  0.64837090     0.13400
H1356       H  0.34592286  0.59637764  0.59750661     0.09900
H1357       H  0.37432702  0.65862625  0.63155163     0.10900
H1358       H  0.30800094  0.62588718  0.74234639     0.16800
C1359       C  0.57842820  0.57330434  0.85521966    -0.01500
C1360       C  0.60671229  0.59260698  0.86791658     0.07100
C1361       C  0.61376379  0.59395975  0.90552509    -0.07400
C1362       C  0.59181663  0.57813771  0.93084644     0.04600
C1363       C  0.56181510  0.56074553  0.91839380    -0.14700
C1364       C  0.55642389  0.55745959  0.88039550    -0.08000
C1365       C  0.62610840  0.61556251  0.84332765     0.05500
C1366       C  0.62149158  0.65045880  0.84804420    -0.09100
C1367       C  0.63960862  0.67382129  0.82660689     0.00500
C1368       C  0.66244220  0.66224571  0.79904995     0.00400
C1369       C  0.66678394  0.62706176  0.79420318    -0.12700
C1370       C  0.64905604  0.60372699  0.81624432     0.00800
C1371       C  0.63483722  0.70914306  0.83504408     0.40200
C1372       C  0.65568918  0.56797120  0.81153505     0.36800
C1373       C  0.57021229  0.57113208  0.81669504     0.36500
C1374       C  0.60016800  0.58171761  0.96918997     0.37300
N1375       N  0.63042111  0.73690786  0.84399193    -0.43500
N1376       N  0.66102694  0.53929830  0.80787410    -0.44000
N1377       N  0.60717478  0.58466128  0.99983522    -0.41300
N1378       N  0.56372241  0.56932856  0.78581943    -0.42800
H1379       H  0.53418330  0.54344781  0.87015863     0.13400
H1380       H  0.63575072  0.60872055  0.91517547     0.09900
H1381       H  0.60390731  0.65948546  0.86912701     0.10900
H1382       H  0.68464141  0.61777651  0.77358824     0.16800
C1383       C  0.60275447  0.64330307  0.70131430    -0.01500
C1384       C  0.61523806  0.62494945  0.67118884     0.07100
C1385       C  0.65094941  0.62291801  0.66466360    -0.07400
C1386       C  0.67457458  0.64015212  0.68682705     0.04600
C1387       C  0.66229225  0.66022273  0.71616187    -0.14700
C1388       C  0.62622042  0.66115733  0.72322994    -0.08000
C1389       C  0.59171477  0.60989857  0.64403148     0.05500
C1390       C  0.58210420  0.62952514  0.61367612    -0.09100
C1391       C  0.56255850  0.61550852  0.58522453     0.00500
C1392       C  0.55220390  0.58112423  0.58721812     0.00400
C1393       C  0.56200932  0.56165966  0.61796695    -0.12700
C1394       C  0.58170460  0.57575788  0.64619603     0.00800
C1395       C  0.55463836  0.63680706  0.55408654     0.40200
C1396       C  0.59167984  0.55475665  0.67692630     0.36800
C1397       C  0.56608473  0.64442526  0.70986071     0.36500
C1398       C  0.71077567  0.63723272  0.67729670     0.37300
N1399       N  0.54844119  0.65389071  0.52910309    -0.43500
N1400       N  0.59972753  0.53796829  0.70155539    -0.44000
N1401       N  0.73918249  0.63404198  0.66747446    -0.41300
N1402       N  0.53672711  0.64502174  0.71693769    -0.42800
H1403       H  0.61615859  0.67676960  0.74517911     0.13400
H1404       H  0.66029670  0.60852559  0.64136762     0.09900
H1405       H  0.59057901  0.65571435  0.61192454     0.10900
H1406       H  0.55412359  0.53534836  0.62021989     0.16800
C1407       C  0.61890632  0.35484022  0.82777128    -0.01500
C1408       C  0.62192475  0.39002242  0.82181163     0.07100
C1409       C  0.64687892  0.40221402  0.79723162    -0.07400
C1410       C  0.66884355  0.37985786  0.77853634     0.04600
C1411       C  0.66604822  0.34451494  0.78469620    -0.14700
C1412       C  0.64087122  0.33254215  0.80921523    -0.08000
C1413       C  0.60071548  0.41441397  0.84282753     0.05500
C1414       C  0.61683690  0.43283285  0.87081712    -0.09100
C1415       C  0.59706025  0.45206177  0.89526676     0.00500
C1416       C  0.56036396  0.45294092  0.89175888     0.00400
C1417       C  0.54468885  0.43683828  0.86165453    -0.12700
C1418       C  0.56456266  0.41757273  0.83729430     0.00800
C1419       C  0.61506700  0.46986684  0.92413574     0.40200
C1420       C  0.54726404  0.40033396  0.80757628     0.36800
C1421       C  0.59387904  0.34104874  0.85323947     0.36500
C1422       C  0.69399505  0.39430114  0.75376884     0.37300
N1423       N  0.62953238  0.48406891  0.94728076    -0.43500
N1424       N  0.53343937  0.38652107  0.78373787    -0.44000
N1425       N  0.71338437  0.40716897  0.73391997    -0.41300
N1426       N  0.57382481  0.32993345  0.87360197    -0.42800
H1427       H  0.63737607  0.30558519  0.81285961     0.13400
H1428       H  0.64929988  0.42933281  0.79285384     0.09900
H1429       H  0.64480450  0.43091986  0.87455536     0.10900
H1430       H  0.51661952  0.43750247  0.85835711     0.16800
C1431       C  0.59357221  0.42808282  0.64448255    -0.01500
C1432       C  0.61277275  0.40067016  0.63008378     0.07100
C1433       C  0.61020308  0.39283046  0.59289710    -0.07400
C1434       C  0.58850205  0.41159914  0.56990431     0.04600
C1435       C  0.56900215  0.43898621  0.58422470    -0.14700
C1436       C  0.57174617  0.44697717  0.62149252    -0.08000
C1437       C  0.63280149  0.37767125  0.65401885     0.05500
C1438       C  0.61454226  0.35879854  0.68010820    -0.09100
C1439       C  0.63193444  0.33683993  0.70380310    -0.00300
C1440       C  0.66856353  0.33398431  0.70191872     0.00400
C1441       C  0.68658172  0.35142497  0.67429473    -0.12700
C1442       C  0.66903019  0.37324166  0.65038235     0.00800
C1443       C  0.61093627  0.31728318  0.72870704     0.40200
C1444       C  0.68883907  0.39141670  0.62312903     0.36800
C1445       C  0.59579312  0.43698237  0.68275741     0.36500
C1446       C  0.58469129  0.40044547  0.53244947     0.37300
N1447       N  0.59248545  0.30259701  0.74804957    -0.43500
N1448       N  0.70487541  0.40578681  0.60124893    -0.44000
N1449       N  0.58136535  0.39151113  0.50250164    -0.41300
N1450       N  0.59769929  0.44383218  0.71347743    -0.42800
H1451       H  0.55671303  0.46781751  0.63264376     0.13400
H1452       H  0.62419276  0.37113072  0.58213220     0.09900
H1453       H  0.58642900  0.36120141  0.68180761     0.10900
H1454       H  0.71462025  0.34895336  0.67219790     0.16800
C1455       C  0.40529187  0.42618976  0.85710691    -0.01500
C1456       C  0.40246363  0.39078927  0.85382169     0.07100
C1457       C  0.41745793  0.36964386  0.88062358    -0.07400
C1458       C  0.43431609  0.38350709  0.91116399     0.04600
C1459       C  0.43599053  0.41891941  0.91498696    -0.14700
C1460       C  0.42189770  0.43989449  0.88752451    -0.08000
C1461       C  0.38116396  0.37535287  0.82465506     0.05500
C1462       C  0.39723829  0.35538071  0.79784703    -0.09100
C1463       C  0.37715097  0.33614303  0.77351600     0.00500
C1464       C  0.34050037  0.33652784  0.77662757     0.00400
C1465       C  0.32478993  0.35981935  0.80024101    -0.12700
C1466       C  0.34463701  0.37859575  0.82486087     0.00800
C1467       C  0.39484184  0.31572273  0.74668656     0.40200
C1468       C  0.32684661  0.39892593  0.85187111     0.36800
C1469       C  0.39104282  0.44896847  0.82989198     0.36500
C1470       C  0.44814283  0.36123462  0.93902998     0.37300
N1471       N  0.40939070  0.30013972  0.72469084    -0.43500
N1472       N  0.31267537  0.41510787  0.87363856    -0.44000
N1473       N  0.45920939  0.34371225  0.96169366    -0.41300
N1474       N  0.37949882  0.46737588  0.80833369    -0.42800
H1475       H  0.42417479  0.46724236  0.88962153     0.13400
H1476       H  0.41500935  0.34235353  0.87821681     0.09900
H1477       H  0.42542279  0.35380353  0.79693259     0.10900
H1478       H  0.29671254  0.36204044  0.80061734     0.16800
C1479       C  0.37422514  0.40367540  0.58805507    -0.01500
C1480       C  0.38825492  0.37977816  0.61270379     0.07100
C1481       C  0.42395926  0.37254093  0.61166987    -0.07400
C1482       C  0.44607986  0.38967192  0.58755984     0.04600
C1483       C  0.43231701  0.41451152  0.56350984    -0.14700
C1484       C  0.39627714  0.42092610  0.56385535    -0.08000
C1485       C  0.36641975  0.36141535  0.63961454     0.05500
C1486       C  0.36332593  0.32630683  0.63615565    -0.09100
C1487       C  0.34595974  0.30702465  0.66253954     0.00500
C1488       C  0.33091557  0.32303776  0.69343099     0.00400
C1489       C  0.33258326  0.35864666  0.69570189    -0.12700
C1490       C  0.35080698  0.37775354  0.66965915     0.00800
C1491       C  0.34586992  0.27089814  0.65704845     0.40200
C1492       C  0.35462266  0.41376781  0.67533944     0.36800
C1493       C  0.33735498  0.41078829  0.58715634     0.36500
C1494       C  0.48293527  0.38274956  0.59021541     0.37300
N1495       N  0.34670223  0.24228468  0.65030814    -0.43500
N1496       N  0.35780062  0.44260738  0.68001357    -0.44000
N1497       N  0.51236819  0.37691649  0.59284882    -0.41300
N1498       N  0.30777756  0.41640698  0.58662890    -0.42800
H1499       H  0.38539985  0.43993485  0.54561348     0.13400
H1500       H  0.43472822  0.35403408  0.63059417     0.09900
H1501       H  0.37540794  0.31377423  0.61299527     0.10900
H1502       H  0.32018542  0.37167420  0.71825979     0.16800
loop_ 
_geom_bond_atom_site_label_1 
_geom_bond_atom_site_label_2 
_geom_bond_distance 
_geom_bond_site_symmetry_2 
_ccdc_geom_bond_type 
O1            C9   1.262       .  A
O1          Co21   2.005       .  S
O2           C10   1.279       .  A
O2          Co22   2.016       .  S
O3           C11   1.262       .  A
O3          Co23   1.960       .  S
O4           C12   1.267       .  A
O4          Co24   1.890       .  S
O5           C11   1.274       .  A
O5          Co22   2.023       .  S
O6           C12   1.293       .  A
O6          Co21   2.086       .  S
O7           C10   1.270       .  A
O7         Co775   1.968       .  S
O8            C9   1.253       .  A
O8         Co774   1.962   1_554  S
C9          C684   1.470       .  S
C10         C612   1.485       .  S
C11         C665   1.479       .  S
C12         C641   1.479       .  S
O13          C26   1.264       .  A
O13         Co21   1.882       .  S
O14          C27   1.254       .  A
O14         Co22   1.941       .  S
O15          C28   1.279       .  A
O15        Co774   2.031   1_554  S
O16          C29   1.262       .  A
O16        Co775   2.019       .  S
O17          C29   1.248       .  A
O17         Co22   1.952       .  S
O18          C28   1.265       .  A
O18         Co21   1.959       .  S
O19          C26   1.297       .  A
O19         Co24   2.109       .  S
O20          C27   1.271       .  A
O20         Co23   2.026       .  S
Co21         O25   1.984   1_554  S
Co22        O776   1.989       .  S
Co23        O759   1.962       .  S
Co23        O766   2.031       .  S
Co23        O776   2.025       .  S
Co24        O758   1.968   1_554  S
Co24        O767   2.019   1_554  S
Co24         O25   2.011   1_554  S
O25        Co773   1.989       .  S
O25        Co774   2.025       .  S
C26         C588   1.474       .  S
C27         C708   1.469       .  S
C28         C732   1.480       .  S
C29         C569   1.487       .  S
C30          C67   1.464       .  S
C30         C468   1.492       .  S
C30          N48   1.353       .  A
N31          N48   1.326       .  A
N31          N53   1.319       .  A
N31         Co68   2.090   1_565  S
C32          C70   1.461       .  S
C32          N57   1.341       .  A
C32          H77   1.081       .  S
H33          C74   1.082       .  S
C34          C38   1.462       .  S
C34          N58   1.340       .  A
C34          H63   1.081       .  S
Co35         N53   2.087       .  S
Co35         N43   2.084       .  S
Co35         N75   2.087   1_565  S
Co35         N51   2.095   1_565  S
Co35        Cl79   2.455   1_565  S
N36          C74   1.345       .  A
N36          N43   1.320       .  A
N36         Co37   2.098   1_565  S
Co37         N57   2.086       .  S
Co37        N791   2.084   1_544  S
Co37        N795   2.087   1_554  S
Co37        Cl79   2.450       .  S
C38         C521   1.487       .  S
C38          N76   1.351       .  A
N39          N46   1.321       .  A
N39          N69   1.324       .  A
N39         Co72   2.084   1_565  S
N40          N58   1.319       .  A
N40          N76   1.323       .  A
N40        Co788   2.083   1_565  S
N41          C70   1.354       .  A
N41          N51   1.327       .  A
H42          C67   1.081       .  S
N43          N64   1.324       .  A
N44          N62   1.320       .  A
N44          N49   1.324       .  A
N44        Co788   2.087       .  S
C45          C73   1.465       .  S
C45         C444   1.484       .  S
C45          N49   1.350       .  A
N46          C61   1.345       .  A
N46        Co819   2.102   1_565  S
C47          C50   1.459       .  S
C47          N75   1.340       .  A
C47          H81   1.082       .  S
C50         C401   1.480       .  S
C50          N71   1.351       .  A
N51          N57   1.319       .  A
N52          C78   1.340       .  A
N52          N54   1.318       .  A
N52        Co819   2.082       .  S
N53          C67   1.340       .  A
N54          N82   1.324       .  A
N54         Co72   2.089       .  S
H55          C78   1.081       .  S
H56          C73   1.081       .  S
N58         Co72   2.081   1_565  S
N59          N71   1.327       .  A
N59          N75   1.322       .  A
N59         Co68   2.096       .  S
C60          C74   1.465       .  S
C60         C540   1.483       .  S
C60          N64   1.349       .  A
C61          C80   1.466       .  S
C61          H65   1.081       .  S
N62          C73   1.341       .  A
N62         Co72   2.087       .  S
C66          C78   1.465       .  S
C66         C377   1.494       .  S
C66          N82   1.353       .  A
Co68        N797   2.102   1_544  S
Co68        N803   2.082   1_554  S
Co68        Cl79   2.455       .  S
N69          C80   1.349       .  A
C70         C420   1.487       .  S
Co72       Cl830   2.452       .  S
Cl79       Co823   2.452   1_554  S
C80         C492   1.489       .  S
C83         C120   1.460       .  S
C83         C276   1.478       .  S
C83         N101   1.350       .  A
N84         N101   1.325       .  A
N84         N106   1.320       .  A
N84        Co121   2.085   1_655  S
C85         C123   1.453       .  S
C85         N110   1.336       .  A
C85         H130   1.081       .  S
H86         C127   1.081       .  S
C87          C91   1.468       .  S
C87         N111   1.340       .  A
C87         H116   1.081       .  S
Co88        N106   2.079   1_455  S
Co88         N96   2.091   1_455  S
Co88        N128   2.088       .  S
Co88        N104   2.091       .  S
Co88       Cl132   2.458       .  S
N89         C127   1.340       .  A
N89          N96   1.320       .  A
N89         Co90   2.082   1_655  S
Co90        N110   2.067       .  S
Co90        N844   2.072   1_454  S
Co90        N848   2.075   1_554  S
Co90       Cl132   2.445       .  S
C91         C324   1.490       .  S
C91         N129   1.349       .  A
N92          N99   1.321       .  A
N92         N122   1.325       .  A
N92        Co125   2.087   1_655  S
N93         N111   1.319       .  A
N93         N129   1.323       .  A
N93        Co841   2.072   1_655  S
N94         C123   1.353       .  A
N94         N104   1.326       .  A
H95         C120   1.081       .  S
N96         N117   1.327       .  A
N97         N115   1.319       .  A
N97         N102   1.321       .  A
N97        Co841   2.075       .  S
C98         C126   1.470       .  S
C98         C204   1.491       .  S
C98         N102   1.348       .  A
N99         C114   1.344       .  A
N99        Co872   2.099   1_655  S
C100        C103   1.462       .  S
C100        N128   1.340       .  A
C100        H134   1.081       .  S
C103        C252   1.493       .  S
C103        N124   1.355       .  A
N104        N110   1.319       .  A
N105        C131   1.339       .  A
N105        N107   1.321       .  A
N105       Co872   2.085       .  S
N106        C120   1.338       .  A
N107        N135   1.328       .  A
N107       Co125   2.099       .  S
H108        C131   1.081       .  S
H109        C126   1.081       .  S
N111       Co125   2.092   1_655  S
N112        N124   1.329       .  A
N112        N128   1.321       .  A
N112       Co121   2.105       .  S
C113        C127   1.457       .  S
C113        C353   1.477       .  S
C113        N117   1.351       .  A
C114        C133   1.466       .  S
C114        H118   1.081       .  S
N115        C126   1.343       .  A
N115       Co125   2.089       .  S
C119        C131   1.462       .  S
C119        C228   1.490       .  S
C119        N135   1.354       .  A
Co121       N850   2.098   1_454  S
Co121       N856   2.085   1_554  S
Co121      Cl132   2.450       .  S
N122        C133   1.350       .  A
C123        C185   1.472       .  S
Co125      Cl883   2.458       .  S
Cl132      Co876   2.458   1_554  S
C133        C300   1.488       .  S
C136        H137   1.110       .  S
C136        C142   1.544       .  S
C136        C141   1.550       .  S
C136        C140   1.532       .  S
C138        H139   1.086       .  S
C138        C144   1.542       .  S
C138        C143   1.551       .  S
C138        C145   1.529       .  S
C140        C143   1.377       .  D
C140        C737   1.498       .  S
C141        C144   1.391       .  D
C141        C257   1.487       .  S
C142        C145   1.371       .  D
C142        C425   1.500       .  S
C143        C713   1.483       .  S
C144        C233   1.539       .  S
C145        C449   1.497       .  S
C146        H147   1.111       .  S
C146        C152   1.544       .  S
C146        C151   1.539       .  S
C146        C150   1.532       .  S
C148        H149   1.109       .  S
C148        C154   1.543       .  S
C148        C153   1.542       .  S
C148        C155   1.531       .  S
C150        C153   1.371       .  D
C150        C689   1.480       .  S
C151        C154   1.383       .  D
C151        C396   1.501       .  S
C152        C155   1.378       .  D
C152        C281   1.489       .  S
C153        C660   1.486       .  S
C154        C372   1.500       .  S
C155        C305   1.496       .  S
C156        H157   1.110       .  S
C156        C162   1.539       .  S
C156        C161   1.541       .  S
C156        C160   1.535       .  S
C158        H159   1.105       .  S
C158        C164   1.533       .  S
C158        C163   1.551       .  S
C158        C165   1.542       .  S
C160        C163   1.376       .  D
C160        C593   1.495       .  S
C161        C164   1.375       .  D
C161        C545   1.488       .  S
C162        C165   1.381       .  D
C162        C180   1.490       .  S
C163        C564   1.488       .  S
C164        C516   1.499       .  S
C165        C209   1.509       .  S
C166        H167   1.109       .  S
C166        C172   1.538       .  S
C166        C171   1.540       .  S
C166        C170   1.538       .  S
C168        H169   1.107       .  S
C168        C174   1.541       .  S
C168        C173   1.540       .  S
C168        C175   1.536       .  S
C170        C173   1.375       .  D
C170        C636   1.489       .  S
C171        C174   1.382       .  D
C171        C348   1.491       .  S
C172        C175   1.377       .  D
C172        C473   1.502       .  S
C173        C617   1.489       .  S
C174        C329   1.507       .  S
C175        C497   1.489       .  S
C176        C177   1.409       .  A
C176        C181   1.402       .  A
C176        C190   1.443       .  S
C177        C182   1.482       .  S
C177        C178   1.399       .  A
C178        H197   1.085       .  S
C178        C179   1.395       .  A
C179        C180   1.415       .  A
C179        C191   1.441       .  S
C180        C181   1.404       .  A
C181        H196   1.081       .  S
C182        C183   1.404       .  A
C182        C187   1.411       .  A
C183        H198   1.085       .  S
C183        C184   1.401       .  A
C184        C185   1.411       .  A
C184        C188   1.445       .  S
C185        C186   1.402       .  A
C186        H199   1.085       .  S
C186        C187   1.399       .  A
C187        C189   1.444       .  S
C188        N192   1.157       .  T
C189        N193   1.157       .  T
C190        N195   1.157       .  T
C191        N194   1.156       .  T
C200        C201   1.408       .  A
C200        C205   1.401       .  A
C200        C214   1.444       .  S
C201        C206   1.482       .  S
C201        C202   1.399       .  A
C202        H221   1.085       .  S
C202        C203   1.400       .  A
C203        C204   1.421       .  A
C203        C215   1.444       .  S
C204        C205   1.407       .  A
C205        H220   1.082       .  S
C206        C207   1.403       .  A
C206        C211   1.404       .  A
C207        H222   1.084       .  S
C207        C208   1.408       .  A
C208        C209   1.417       .  A
C208        C212   1.443       .  S
C209        C210   1.407       .  A
C210        H223   1.074       .  S
C210        C211   1.395       .  A
C211        C213   1.445       .  S
C212        N216   1.157       .  T
C213        N217   1.157       .  T
C214        N219   1.157       .  T
C215        N218   1.157       .  T
C224        C225   1.414       .  A
C224        C229   1.405       .  A
C224        C238   1.443       .  S
C225        C230   1.494       .  S
C225        C226   1.402       .  A
C226        H245   1.085       .  S
C226        C227   1.404       .  A
C227        C228   1.417       .  A
C227        C239   1.443       .  S
C228        C229   1.404       .  A
C229        H244   1.085       .  S
C230        C231   1.394       .  A
C230        C235   1.408       .  A
C231        H246   1.086       .  S
C231        C232   1.402       .  A
C232        C233   1.434       .  A
C232        C236   1.440       .  S
C233        C234   1.417       .  A
C234        H247   1.081       .  S
C234        C235   1.408       .  A
C235        C237   1.443       .  S
C236        N240   1.158       .  T
C237        N241   1.157       .  T
C238        N243   1.157       .  T
C239        N242   1.157       .  T
C248        C249   1.411       .  A
C248        C253   1.402       .  A
C248        C262   1.446       .  S
C249        C254   1.492       .  S
C249        C250   1.404       .  A
C250        H269   1.085       .  S
C250        C251   1.406       .  A
C251        C252   1.416       .  A
C251        C263   1.443       .  S
C252        C253   1.408       .  A
C253        H268   1.083       .  S
C254        C255   1.407       .  A
C254        C259   1.413       .  A
C255        H270   1.084       .  S
C255        C256   1.404       .  A
C256        C257   1.408       .  A
C256        C260   1.443       .  S
C257        C258   1.403       .  A
C258        H271   1.085       .  S
C258        C259   1.398       .  A
C259        C261   1.444       .  S
C260        N264   1.157       .  T
C261        N265   1.157       .  T
C262        N267   1.157       .  T
C263        N266   1.157       .  T
C272        C273   1.411       .  A
C272        C277   1.402       .  A
C272        C286   1.444       .  S
C273        C278   1.484       .  S
C273        C274   1.402       .  A
C274        H293   1.085       .  S
C274        C275   1.397       .  A
C275        C276   1.412       .  A
C275        C287   1.444       .  S
C276        C277   1.403       .  A
C277        H292   1.082       .  S
C278        C279   1.404       .  A
C278        C283   1.409       .  A
C279        H294   1.084       .  S
C279        C280   1.404       .  A
C280        C281   1.411       .  A
C280        C284   1.441       .  S
C281        C282   1.402       .  A
C282        H295   1.079       .  S
C282        C283   1.395       .  A
C283        C285   1.445       .  S
C284        N288   1.157       .  T
C285        N289   1.157       .  T
C286        N291   1.157       .  T
C287        N290   1.157       .  T
C296        C297   1.410       .  A
C296        C301   1.404       .  A
C296        C310   1.444       .  S
C297        C302   1.490       .  S
C297        C298   1.404       .  A
C298        H317   1.085       .  S
C298        C299   1.403       .  A
C299        C300   1.413       .  A
C299        C311   1.441       .  S
C300        C301   1.407       .  A
C301        H316   1.084       .  S
C302        C303   1.405       .  A
C302        C307   1.409       .  A
C303        H318   1.085       .  S
C303        C304   1.405       .  A
C304        C305   1.411       .  A
C304        C308   1.442       .  S
C305        C306   1.406       .  A
C306        H319   1.082       .  S
C306        C307   1.400       .  A
C307        C309   1.444       .  S
C308        N312   1.157       .  T
C309        N313   1.157       .  T
C310        N315   1.157       .  T
C311        N314   1.156       .  T
C320        C321   1.408       .  A
C320        C325   1.398       .  A
C320        C334   1.444       .  S
C321        C326   1.480       .  S
C321        C322   1.400       .  A
C322        H341   1.085       .  S
C322        C323   1.401       .  A
C323        C324   1.420       .  A
C323        C335   1.444       .  S
C324        C325   1.407       .  A
C325        H340   1.082       .  S
C326        C327   1.394       .  A
C326        C331   1.406       .  A
C327        H342   1.086       .  S
C327        C328   1.396       .  A
C328        C329   1.423       .  A
C328        C332   1.439       .  S
C329        C330   1.412       .  A
C330        H343   1.083       .  S
C330        C331   1.403       .  A
C331        C333   1.443       .  S
C332        N336   1.156       .  T
C333        N337   1.157       .  T
C334        N339   1.157       .  T
C335        N338   1.157       .  T
C344        C345   1.417       .  A
C344        C349   1.403       .  A
C344        C358   1.443       .  S
C345        C350   1.499       .  S
C345        C346   1.405       .  A
C346        H365   1.084       .  S
C346        C347   1.400       .  A
C347        C348   1.414       .  A
C347        C359   1.444       .  S
C348        C349   1.401       .  A
C349        H364   1.085       .  S
C350        C351   1.407       .  A
C350        C355   1.419       .  A
C351        H366   1.084       .  S
C351        C352   1.403       .  A
C352        C353   1.411       .  A
C352        C356   1.444       .  S
C353        C354   1.399       .  A
C354        H367   1.085       .  S
C354        C355   1.402       .  A
C355        C357   1.444       .  S
C356        N360   1.157       .  T
C357        N361   1.157       .  T
C358        N363   1.157       .  T
C359        N362   1.157       .  T
C368        C369   1.406       .  A
C368        C373   1.396       .  A
C368        C382   1.444       .  S
C369        C374   1.482       .  S
C369        C370   1.403       .  A
C370        H389   1.084       .  S
C370        C371   1.405       .  A
C371        C372   1.415       .  A
C371        C383   1.443       .  S
C372        C373   1.406       .  A
C373        H388   1.077       .  S
C374        C375   1.400       .  A
C374        C379   1.406       .  A
C375        H390   1.085       .  S
C375        C376   1.402       .  A
C376        C377   1.419       .  A
C376        C380   1.444       .  S
C377        C378   1.410       .  A
C378        H391   1.082       .  S
C378        C379   1.402       .  A
C379        C381   1.444       .  S
C380        N384   1.157       .  T
C381        N385   1.157       .  T
C382        N387   1.157       .  T
C383        N386   1.157       .  T
C392        C393   1.410       .  A
C392        C397   1.402       .  A
C392        C406   1.444       .  S
C393        C398   1.489       .  S
C393        C394   1.400       .  A
C394        H413   1.085       .  S
C394        C395   1.401       .  A
C395        C396   1.419       .  A
C395        C407   1.441       .  S
C396        C397   1.405       .  A
C397        H412   1.079       .  S
C398        C399   1.403       .  A
C398        C403   1.413       .  A
C399        H414   1.085       .  S
C399        C400   1.400       .  A
C400        C401   1.412       .  A
C400        C404   1.444       .  S
C401        C402   1.404       .  A
C402        H415   1.085       .  S
C402        C403   1.405       .  A
C403        C405   1.444       .  S
C404        N408   1.157       .  T
C405        N409   1.157       .  T
C406        N411   1.157       .  T
C407        N410   1.157       .  T
C416        C417   1.413       .  A
C416        C421   1.404       .  A
C416        C430   1.444       .  S
C417        C422   1.492       .  S
C417        C418   1.403       .  A
C418        H437   1.085       .  S
C418        C419   1.402       .  A
C419        C420   1.414       .  A
C419        C431   1.443       .  S
C420        C421   1.406       .  A
C421        H436   1.084       .  S
C422        C423   1.398       .  A
C422        C427   1.413       .  A
C423        H438   1.085       .  S
C423        C424   1.397       .  A
C424        C425   1.421       .  A
C424        C428   1.441       .  S
C425        C426   1.405       .  A
C426        H439   1.084       .  S
C426        C427   1.408       .  A
C427        C429   1.442       .  S
C428        N432   1.156       .  T
C429        N433   1.157       .  T
C430        N435   1.157       .  T
C431        N434   1.157       .  T
C440        C441   1.407       .  A
C440        C445   1.400       .  A
C440        C454   1.444       .  S
C441        C446   1.479       .  S
C441        C442   1.400       .  A
C442        H461   1.085       .  S
C442        C443   1.400       .  A
C443        C444   1.417       .  A
C443        C455   1.443       .  S
C444        C445   1.406       .  A
C445        H460   1.085       .  S
C446        C447   1.397       .  A
C446        C451   1.407       .  A
C447        H462   1.086       .  S
C447        C448   1.395       .  A
C448        C449   1.418       .  A
C448        C452   1.441       .  S
C449        C450   1.408       .  A
C450        H463   1.084       .  S
C450        C451   1.401       .  A
C451        C453   1.443       .  S
C452        N456   1.156       .  T
C453        N457   1.157       .  T
C454        N459   1.157       .  T
C455        N458   1.157       .  T
C464        C465   1.408       .  A
C464        C469   1.401       .  A
C464        C478   1.445       .  S
C465        C470   1.484       .  S
C465        C466   1.401       .  A
C466        H485   1.085       .  S
C466        C467   1.403       .  A
C467        C468   1.417       .  A
C467        C479   1.443       .  S
C468        C469   1.409       .  A
C469        H484   1.083       .  S
C470        C471   1.396       .  A
C470        C475   1.408       .  A
C471        H486   1.086       .  S
C471        C472   1.398       .  A
C472        C473   1.420       .  A
C472        C476   1.439       .  S
C473        C474   1.409       .  A
C474        H487   1.084       .  S
C474        C475   1.403       .  A
C475        C477   1.442       .  S
C476        N480   1.156       .  T
C477        N481   1.157       .  T
C478        N483   1.157       .  T
C479        N482   1.157       .  T
C488        C489   1.415       .  A
C488        C493   1.405       .  A
C488        C502   1.444       .  S
C489        C494   1.496       .  S
C489        C490   1.404       .  A
C490        H509   1.085       .  S
C490        C491   1.403       .  A
C491        C492   1.416       .  A
C491        C503   1.444       .  S
C492        C493   1.404       .  A
C493        H508   1.084       .  S
C494        C495   1.406       .  A
C494        C499   1.415       .  A
C495        H510   1.085       .  S
C495        C496   1.403       .  A
C496        C497   1.413       .  A
C496        C500   1.444       .  S
C497        C498   1.401       .  A
C498        H511   1.085       .  S
C498        C499   1.402       .  A
C499        C501   1.443       .  S
C500        N504   1.157       .  T
C501        N505   1.157       .  T
C502        N507   1.157       .  T
C503        N506   1.157       .  T
C512        C513   1.406       .  A
C512        C517   1.402       .  A
C512        C526   1.443       .  S
C513        C518   1.477       .  S
C513        C514   1.394       .  A
C514        H533   1.086       .  S
C514        C515   1.394       .  A
C515        C516   1.419       .  A
C515        C527   1.438       .  S
C516        C517   1.410       .  A
C517        H532   1.084       .  S
C518        C519   1.398       .  A
C518        C523   1.408       .  A
C519        H534   1.085       .  S
C519        C520   1.399       .  A
C520        C521   1.418       .  A
C520        C524   1.443       .  S
C521        C522   1.408       .  A
C522        H535   1.083       .  S
C522        C523   1.400       .  A
C523        C525   1.445       .  S
C524        N528   1.157       .  T
C525        N529   1.157       .  T
C526        N531   1.157       .  T
C527        N530   1.156       .  T
C536        C537   1.410       .  A
C536        C541   1.400       .  A
C536        C550   1.444       .  S
C537        C542   1.488       .  S
C537        C538   1.405       .  A
C538        H557   1.085       .  S
C538        C539   1.406       .  A
C539        C540   1.412       .  A
C539        C551   1.444       .  S
C540        C541   1.405       .  A
C541        H556   1.085       .  S
C542        C543   1.405       .  A
C542        C547   1.411       .  A
C543        H558   1.084       .  S
C543        C544   1.405       .  A
C544        C545   1.409       .  A
C544        C548   1.442       .  S
C545        C546   1.404       .  A
C546        H559   1.084       .  S
C546        C547   1.398       .  A
C547        C549   1.443       .  S
C548        N552   1.157       .  T
C549        N553   1.157       .  T
C550        N555   1.157       .  T
C551        N554   1.157       .  T
C560        C561   1.413       .  A
C560        C565   1.391       .  A
C560        C574   1.445       .  S
C561        C566   1.492       .  S
C561        C562   1.409       .  A
C562        H581   1.084       .  S
C562        C563   1.407       .  A
C563        C564   1.412       .  A
C563        C575   1.443       .  S
C564        C565   1.395       .  A
C565        H580   1.073       .  S
C566        C567   1.402       .  A
C566        C571   1.414       .  A
C567        H582   1.085       .  S
C567        C568   1.394       .  A
C568        C569   1.420       .  A
C568        C572   1.446       .  S
C569        C570   1.406       .  A
C570        H583   1.084       .  S
C570        C571   1.404       .  A
C571        C573   1.443       .  S
C572        N576   1.158       .  T
C573        N577   1.157       .  T
C574        N579   1.157       .  T
C575        N578   1.157       .  T
C584        C585   1.408       .  A
C584        C589   1.395       .  A
C584        C598   1.445       .  S
C585        C590   1.478       .  S
C585        C586   1.404       .  A
C586        H605   1.085       .  S
C586        C587   1.401       .  A
C587        C588   1.412       .  A
C587        C599   1.444       .  S
C588        C589   1.404       .  A
C589        H604   1.085       .  S
C590        C591   1.395       .  A
C590        C595   1.407       .  A
C591        H606   1.086       .  S
C591        C592   1.396       .  A
C592        C593   1.417       .  A
C592        C596   1.439       .  S
C593        C594   1.409       .  A
C594        H607   1.082       .  S
C594        C595   1.400       .  A
C595        C597   1.443       .  S
C596        N600   1.156       .  T
C597        N601   1.157       .  T
C598        N603   1.157       .  T
C599        N602   1.157       .  T
C608        C609   1.406       .  A
C608        C613   1.397       .  A
C608        C622   1.445       .  S
C609        C614   1.477       .  S
C609        C610   1.401       .  A
C610        H629   1.085       .  S
C610        C611   1.398       .  A
C611        C612   1.417       .  A
C611        C623   1.444       .  S
C612        C613   1.410       .  A
C613        H628   1.084       .  S
C614        C615   1.399       .  A
C614        C619   1.406       .  A
C615        H630   1.086       .  S
C615        C616   1.395       .  A
C616        C617   1.413       .  A
C616        C620   1.439       .  S
C617        C618   1.409       .  A
C618        H631   1.084       .  S
C618        C619   1.399       .  A
C619        C621   1.444       .  S
C620        N624   1.156       .  T
C621        N625   1.157       .  T
C622        N627   1.157       .  T
C623        N626   1.157       .  T
C632        C633   1.404       .  A
C632        C637   1.397       .  A
C632        C646   1.444       .  S
C633        C638   1.468       .  S
C633        C634   1.395       .  A
C634        H653   1.086       .  S
C634        C635   1.394       .  A
C635        C636   1.415       .  A
C635        C647   1.438       .  S
C636        C637   1.410       .  A
C637        H652   1.084       .  S
C638        C639   1.400       .  A
C638        C643   1.403       .  A
C639        H654   1.085       .  S
C639        C640   1.397       .  A
C640        C641   1.415       .  A
C640        C644   1.444       .  S
C641        C642   1.410       .  A
C642        H655   1.084       .  S
C642        C643   1.395       .  A
C643        C645   1.445       .  S
C644        N648   1.157       .  T
C645        N649   1.157       .  T
C646        N651   1.157       .  T
C647        N650   1.156       .  T
C656        C657   1.409       .  A
C656        C661   1.396       .  A
C656        C670   1.444       .  S
C657        C662   1.477       .  S
C657        C658   1.399       .  A
C658        H677   1.085       .  S
C658        C659   1.400       .  A
C659        C660   1.416       .  A
C659        C671   1.441       .  S
C660        C661   1.400       .  A
C661        H676   1.080       .  S
C662        C663   1.400       .  A
C662        C667   1.408       .  A
C663        H678   1.085       .  S
C663        C664   1.398       .  A
C664        C665   1.415       .  A
C664        C668   1.445       .  S
C665        C666   1.407       .  A
C666        H679   1.085       .  S
C666        C667   1.399       .  A
C667        C669   1.444       .  S
C668        N672   1.157       .  T
C669        N673   1.157       .  T
C670        N675   1.157       .  T
C671        N674   1.157       .  T
C680        C681   1.411       .  A
C680        C685   1.399       .  A
C680        C694   1.445       .  S
C681        C686   1.474       .  S
C681        C682   1.398       .  A
C682        H701   1.085       .  S
C682        C683   1.393       .  A
C683        C684   1.416       .  A
C683        C695   1.446       .  S
C684        C685   1.402       .  A
C685        H700   1.085       .  S
C686        C687   1.398       .  A
C686        C691   1.409       .  A
C687        H702   1.086       .  S
C687        C688   1.392       .  A
C688        C689   1.413       .  A
C688        C692   1.440       .  S
C689        C690   1.403       .  A
C690        H703   1.084       .  S
C690        C691   1.397       .  A
C691        C693   1.443       .  S
C692        N696   1.156       .  T
C693        N697   1.157       .  T
C694        N699   1.157       .  T
C695        N698   1.157       .  T
C704        C705   1.406       .  A
C704        C709   1.391       .  A
C704        C718   1.445       .  S
C705        C710   1.476       .  S
C705        C706   1.407       .  A
C706        H725   1.084       .  S
C706        C707   1.402       .  A
C707        C708   1.406       .  A
C707        C719   1.443       .  S
C708        C709   1.406       .  A
C709        H724   1.085       .  S
C710        C711   1.402       .  A
C710        C715   1.408       .  A
C711        H726   1.085       .  S
C711        C712   1.401       .  A
C712        C713   1.412       .  A
C712        C716   1.441       .  S
C713        C714   1.399       .  A
C714        H727   1.082       .  S
C714        C715   1.393       .  A
C715        C717   1.445       .  S
C716        N720   1.157       .  T
C717        N721   1.157       .  T
C718        N723   1.157       .  T
C719        N722   1.157       .  T
C728        C729   1.408       .  A
C728        C733   1.401       .  A
C728        C742   1.444       .  S
C729        C734   1.481       .  S
C729        C730   1.401       .  A
C730        H749   1.085       .  S
C730        C731   1.398       .  A
C731        C732   1.416       .  A
C731        C743   1.444       .  S
C732        C733   1.407       .  A
C733        H748   1.085       .  S
C734        C735   1.396       .  A
C734        C739   1.409       .  A
C735        H750   1.086       .  S
C735        C736   1.397       .  A
C736        C737   1.418       .  A
C736        C740   1.440       .  S
C737        C738   1.409       .  A
C738        H751   1.083       .  S
C738        C739   1.401       .  A
C739        C741   1.444       .  S
C740        N744   1.156       .  T
C741        N745   1.157       .  T
C742        N747   1.157       .  T
C743        N746   1.157       .  T
O752        C760   1.262       .  A
O752       Co772   2.005       .  S
O753        C761   1.279       .  A
O753       Co773   2.016       .  S
O754        C762   1.262       .  A
O754       Co774   1.960       .  S
O755        C763   1.267       .  A
O755       Co775   1.890       .  S
O756        C762   1.274       .  A
O756       Co773   2.023       .  S
O757        C763   1.293       .  A
O757       Co772   2.086       .  S
O758        C761   1.270       .  A
O759        C760   1.253       .  A
C760       C1435   1.470       .  S
C761       C1363   1.485       .  S
C762       C1416   1.479       .  S
C763       C1392   1.479       .  S
O764        C777   1.264       .  A
O764       Co772   1.882       .  S
O765        C778   1.254       .  A
O765       Co773   1.941       .  S
O766        C779   1.279       .  A
O767        C780   1.262       .  A
O768        C780   1.248       .  A
O768       Co773   1.952       .  S
O769        C779   1.265       .  A
O769       Co772   1.959       .  S
O770        C777   1.297       .  A
O770       Co775   2.109       .  S
O771        C778   1.271       .  A
O771       Co774   2.026       .  S
Co772       O776   1.984       .  S
Co775       O776   2.011       .  S
C777       C1339   1.474       .  S
C778       C1459   1.469       .  S
C779       C1483   1.480       .  S
C780       C1320   1.487       .  S
C781        C818   1.464       .  S
C781       C1219   1.492       .  S
C781        N799   1.353       .  A
N782        N799   1.326       .  A
N782        N804   1.319       .  A
N782       Co819   2.090   1_565  S
C783        C821   1.461       .  S
C783        N808   1.341       .  A
C783        H828   1.081       .  S
H784        C825   1.082       .  S
C785        C789   1.462       .  S
C785        N809   1.340       .  A
C785        H814   1.081       .  S
Co786       N804   2.087       .  S
Co786       N794   2.084       .  S
Co786       N826   2.087   1_565  S
Co786       N802   2.095   1_565  S
Co786      Cl830   2.455   1_565  S
N787        C825   1.345       .  A
N787        N794   1.320       .  A
N787       Co788   2.098   1_565  S
Co788       N808   2.086       .  S
Co788      Cl830   2.451       .  S
C789       C1272   1.487       .  S
C789        N827   1.351       .  A
N790        N797   1.321       .  A
N790        N820   1.324       .  A
N790       Co823   2.084   1_565  S
N791        N809   1.319       .  A
N791        N827   1.323       .  A
N792        C821   1.354       .  A
N792        N802   1.327       .  A
H793        C818   1.081       .  S
N794        N815   1.324       .  A
N795        N813   1.321       .  A
N795        N800   1.324       .  A
C796        C824   1.465       .  S
C796       C1195   1.485       .  S
C796        N800   1.350       .  A
N797        C812   1.345       .  A
C798        C801   1.459       .  S
C798        N826   1.340       .  A
C798        H832   1.082       .  S
C801       C1152   1.480       .  S
C801        N822   1.351       .  A
N802        N808   1.319       .  A
N803        C829   1.340       .  A
N803        N805   1.318       .  A
N804        C818   1.340       .  A
N805        N833   1.324       .  A
N805       Co823   2.089       .  S
H806        C829   1.081       .  S
H807        C824   1.081       .  S
N809       Co823   2.081   1_565  S
N810        N822   1.327       .  A
N810        N826   1.322       .  A
N810       Co819   2.096       .  S
C811        C825   1.465       .  S
C811       C1291   1.483       .  S
C811        N815   1.350       .  A
C812        C831   1.466       .  S
C812        H816   1.081       .  S
N813        C824   1.341       .  A
N813       Co823   2.087       .  S
C817        C829   1.465       .  S
C817       C1128   1.494       .  S
C817        N833   1.353       .  A
Co819      Cl830   2.455       .  S
N820        C831   1.349       .  A
C821       C1171   1.487       .  S
C831       C1243   1.489       .  S
C834        C871   1.460       .  S
C834       C1027   1.478       .  S
C834        N852   1.350       .  A
N835        N852   1.325       .  A
N835        N857   1.320       .  A
N835       Co872   2.085   1_655  S
C836        C874   1.453       .  S
C836        N861   1.336       .  A
C836        H881   1.081       .  S
H837        C878   1.081       .  S
C838        C842   1.468       .  S
C838        N862   1.340       .  A
C838        H867   1.081       .  S
Co839       N857   2.079   1_455  S
Co839       N847   2.091   1_455  S
Co839       N879   2.088       .  S
Co839       N855   2.091       .  S
Co839      Cl883   2.458       .  S
N840        C878   1.340       .  A
N840        N847   1.320       .  A
N840       Co841   2.082   1_655  S
Co841       N861   2.067       .  S
Co841      Cl883   2.445       .  S
C842       C1075   1.490       .  S
C842        N880   1.349       .  A
N843        N850   1.321       .  A
N843        N873   1.325       .  A
N843       Co876   2.087   1_655  S
N844        N862   1.319       .  A
N844        N880   1.323       .  A
N845        C874   1.353       .  A
N845        N855   1.326       .  A
H846        C871   1.081       .  S
N847        N868   1.327       .  A
N848        N866   1.319       .  A
N848        N853   1.321       .  A
C849        C877   1.470       .  S
C849        C955   1.491       .  S
C849        N853   1.348       .  A
N850        C865   1.344       .  A
C851        C854   1.462       .  S
C851        N879   1.340       .  A
C851        H885   1.081       .  S
C854       C1003   1.493       .  S
C854        N875   1.355       .  A
N855        N861   1.319       .  A
N856        C882   1.339       .  A
N856        N858   1.321       .  A
N857        C871   1.338       .  A
N858        N886   1.328       .  A
N858       Co876   2.099       .  S
H859        C882   1.081       .  S
H860        C877   1.081       .  S
N862       Co876   2.092   1_655  S
N863        N875   1.329       .  A
N863        N879   1.321       .  A
N863       Co872   2.105       .  S
C864        C878   1.457       .  S
C864       C1104   1.477       .  S
C864        N868   1.351       .  A
C865        C884   1.466       .  S
C865        H869   1.081       .  S
N866        C877   1.343       .  A
N866       Co876   2.089       .  S
C870        C882   1.462       .  S
C870        C979   1.490       .  S
C870        N886   1.354       .  A
Co872      Cl883   2.450       .  S
N873        C884   1.350       .  A
C874        C936   1.472       .  S
C884       C1051   1.488       .  S
C887        H888   1.110       .  S
C887        C893   1.544       .  S
C887        C892   1.550       .  S
C887        C891   1.532       .  S
C889        H890   1.086       .  S
C889        C895   1.542       .  S
C889        C894   1.551       .  S
C889        C896   1.529       .  S
C891        C894   1.377       .  D
C891       C1488   1.498       .  S
C892        C895   1.391       .  D
C892       C1008   1.487       .  S
C893        C896   1.371       .  D
C893       C1176   1.500       .  S
C894       C1464   1.483       .  S
C895        C984   1.539       .  S
C896       C1200   1.497       .  S
C897        H898   1.111       .  S
C897        C903   1.544       .  S
C897        C902   1.539       .  S
C897        C901   1.532       .  S
C899        H900   1.109       .  S
C899        C905   1.543       .  S
C899        C904   1.542       .  S
C899        C906   1.531       .  S
C901        C904   1.371       .  D
C901       C1440   1.480       .  S
C902        C905   1.383       .  D
C902       C1147   1.501       .  S
C903        C906   1.378       .  D
C903       C1032   1.489       .  S
C904       C1411   1.486       .  S
C905       C1123   1.501       .  S
C906       C1056   1.496       .  S
C907        H908   1.110       .  S
C907        C913   1.539       .  S
C907        C912   1.541       .  S
C907        C911   1.535       .  S
C909        H910   1.105       .  S
C909        C915   1.533       .  S
C909        C914   1.551       .  S
C909        C916   1.542       .  S
C911        C914   1.376       .  D
C911       C1344   1.495       .  S
C912        C915   1.375       .  D
C912       C1296   1.488       .  S
C913        C916   1.381       .  D
C913        C931   1.490       .  S
C914       C1315   1.488       .  S
C915       C1267   1.499       .  S
C916        C960   1.509       .  S
C917        H918   1.109       .  S
C917        C923   1.538       .  S
C917        C922   1.540       .  S
C917        C921   1.538       .  S
C919        H920   1.107       .  S
C919        C925   1.541       .  S
C919        C924   1.540       .  S
C919        C926   1.536       .  S
C921        C924   1.375       .  D
C921       C1387   1.489       .  S
C922        C925   1.382       .  D
C922       C1099   1.491       .  S
C923        C926   1.377       .  D
C923       C1224   1.502       .  S
C924       C1368   1.489       .  S
C925       C1080   1.507       .  S
C926       C1248   1.489       .  S
C927        C928   1.409       .  A
C927        C932   1.402       .  A
C927        C941   1.443       .  S
C928        C933   1.482       .  S
C928        C929   1.399       .  A
C929        H948   1.085       .  S
C929        C930   1.395       .  A
C930        C931   1.415       .  A
C930        C942   1.441       .  S
C931        C932   1.404       .  A
C932        H947   1.081       .  S
C933        C934   1.404       .  A
C933        C938   1.411       .  A
C934        H949   1.085       .  S
C934        C935   1.401       .  A
C935        C936   1.411       .  A
C935        C939   1.445       .  S
C936        C937   1.402       .  A
C937        H950   1.085       .  S
C937        C938   1.399       .  A
C938        C940   1.444       .  S
C939        N943   1.157       .  T
C940        N944   1.157       .  T
C941        N946   1.157       .  T
C942        N945   1.156       .  T
C951        C952   1.408       .  A
C951        C956   1.401       .  A
C951        C965   1.444       .  S
C952        C957   1.482       .  S
C952        C953   1.399       .  A
C953        H972   1.085       .  S
C953        C954   1.400       .  A
C954        C955   1.421       .  A
C954        C966   1.444       .  S
C955        C956   1.407       .  A
C956        H971   1.082       .  S
C957        C958   1.403       .  A
C957        C962   1.404       .  A
C958        H973   1.084       .  S
C958        C959   1.408       .  A
C959        C960   1.417       .  A
C959        C963   1.443       .  S
C960        C961   1.407       .  A
C961        H974   1.074       .  S
C961        C962   1.395       .  A
C962        C964   1.445       .  S
C963        N967   1.157       .  T
C964        N968   1.157       .  T
C965        N970   1.157       .  T
C966        N969   1.157       .  T
C975        C976   1.414       .  A
C975        C980   1.405       .  A
C975        C989   1.443       .  S
C976        C981   1.494       .  S
C976        C977   1.402       .  A
C977        H996   1.085       .  S
C977        C978   1.404       .  A
C978        C979   1.417       .  A
C978        C990   1.443       .  S
C979        C980   1.404       .  A
C980        H995   1.085       .  S
C981        C982   1.394       .  A
C981        C986   1.408       .  A
C982        H997   1.086       .  S
C982        C983   1.402       .  A
C983        C984   1.434       .  A
C983        C987   1.440       .  S
C984        C985   1.417       .  A
C985        H998   1.081       .  S
C985        C986   1.408       .  A
C986        C988   1.443       .  S
C987        N991   1.158       .  T
C988        N992   1.157       .  T
C989        N994   1.157       .  T
C990        N993   1.157       .  T
C999       C1000   1.411       .  A
C999       C1004   1.402       .  A
C999       C1013   1.446       .  S
C1000      C1005   1.492       .  S
C1000      C1001   1.404       .  A
C1001      H1020   1.085       .  S
C1001      C1002   1.406       .  A
C1002      C1003   1.416       .  A
C1002      C1014   1.443       .  S
C1003      C1004   1.408       .  A
C1004      H1019   1.083       .  S
C1005      C1006   1.407       .  A
C1005      C1010   1.413       .  A
C1006      H1021   1.084       .  S
C1006      C1007   1.404       .  A
C1007      C1008   1.408       .  A
C1007      C1011   1.443       .  S
C1008      C1009   1.403       .  A
C1009      H1022   1.085       .  S
C1009      C1010   1.398       .  A
C1010      C1012   1.444       .  S
C1011      N1015   1.157       .  T
C1012      N1016   1.157       .  T
C1013      N1018   1.157       .  T
C1014      N1017   1.157       .  T
C1023      C1024   1.411       .  A
C1023      C1028   1.402       .  A
C1023      C1037   1.444       .  S
C1024      C1029   1.484       .  S
C1024      C1025   1.402       .  A
C1025      H1044   1.085       .  S
C1025      C1026   1.397       .  A
C1026      C1027   1.412       .  A
C1026      C1038   1.444       .  S
C1027      C1028   1.403       .  A
C1028      H1043   1.082       .  S
C1029      C1030   1.404       .  A
C1029      C1034   1.409       .  A
C1030      H1045   1.084       .  S
C1030      C1031   1.404       .  A
C1031      C1032   1.411       .  A
C1031      C1035   1.441       .  S
C1032      C1033   1.402       .  A
C1033      H1046   1.079       .  S
C1033      C1034   1.395       .  A
C1034      C1036   1.445       .  S
C1035      N1039   1.157       .  T
C1036      N1040   1.157       .  T
C1037      N1042   1.157       .  T
C1038      N1041   1.157       .  T
C1047      C1048   1.410       .  A
C1047      C1052   1.404       .  A
C1047      C1061   1.444       .  S
C1048      C1053   1.490       .  S
C1048      C1049   1.404       .  A
C1049      H1068   1.085       .  S
C1049      C1050   1.403       .  A
C1050      C1051   1.413       .  A
C1050      C1062   1.441       .  S
C1051      C1052   1.407       .  A
C1052      H1067   1.084       .  S
C1053      C1054   1.405       .  A
C1053      C1058   1.409       .  A
C1054      H1069   1.085       .  S
C1054      C1055   1.405       .  A
C1055      C1056   1.411       .  A
C1055      C1059   1.442       .  S
C1056      C1057   1.406       .  A
C1057      H1070   1.082       .  S
C1057      C1058   1.400       .  A
C1058      C1060   1.444       .  S
C1059      N1063   1.157       .  T
C1060      N1064   1.157       .  T
C1061      N1066   1.157       .  T
C1062      N1065   1.156       .  T
C1071      C1072   1.408       .  A
C1071      C1076   1.398       .  A
C1071      C1085   1.444       .  S
C1072      C1077   1.480       .  S
C1072      C1073   1.400       .  A
C1073      H1092   1.085       .  S
C1073      C1074   1.401       .  A
C1074      C1075   1.420       .  A
C1074      C1086   1.444       .  S
C1075      C1076   1.407       .  A
C1076      H1091   1.082       .  S
C1077      C1078   1.394       .  A
C1077      C1082   1.406       .  A
C1078      H1093   1.086       .  S
C1078      C1079   1.396       .  A
C1079      C1080   1.423       .  A
C1079      C1083   1.439       .  S
C1080      C1081   1.412       .  A
C1081      H1094   1.083       .  S
C1081      C1082   1.403       .  A
C1082      C1084   1.443       .  S
C1083      N1087   1.156       .  T
C1084      N1088   1.157       .  T
C1085      N1090   1.157       .  T
C1086      N1089   1.157       .  T
C1095      C1096   1.417       .  A
C1095      C1100   1.403       .  A
C1095      C1109   1.443       .  S
C1096      C1101   1.499       .  S
C1096      C1097   1.405       .  A
C1097      H1116   1.084       .  S
C1097      C1098   1.400       .  A
C1098      C1099   1.414       .  A
C1098      C1110   1.444       .  S
C1099      C1100   1.401       .  A
C1100      H1115   1.085       .  S
C1101      C1102   1.407       .  A
C1101      C1106   1.419       .  A
C1102      H1117   1.084       .  S
C1102      C1103   1.403       .  A
C1103      C1104   1.411       .  A
C1103      C1107   1.444       .  S
C1104      C1105   1.399       .  A
C1105      H1118   1.085       .  S
C1105      C1106   1.402       .  A
C1106      C1108   1.444       .  S
C1107      N1111   1.157       .  T
C1108      N1112   1.157       .  T
C1109      N1114   1.157       .  T
C1110      N1113   1.157       .  T
C1119      C1120   1.405       .  A
C1119      C1124   1.396       .  A
C1119      C1133   1.444       .  S
C1120      C1125   1.482       .  S
C1120      C1121   1.403       .  A
C1121      H1140   1.084       .  S
C1121      C1122   1.405       .  A
C1122      C1123   1.415       .  A
C1122      C1134   1.443       .  S
C1123      C1124   1.406       .  A
C1124      H1139   1.077       .  S
C1125      C1126   1.400       .  A
C1125      C1130   1.406       .  A
C1126      H1141   1.085       .  S
C1126      C1127   1.402       .  A
C1127      C1128   1.419       .  A
C1127      C1131   1.444       .  S
C1128      C1129   1.410       .  A
C1129      H1142   1.082       .  S
C1129      C1130   1.402       .  A
C1130      C1132   1.444       .  S
C1131      N1135   1.157       .  T
C1132      N1136   1.157       .  T
C1133      N1138   1.157       .  T
C1134      N1137   1.157       .  T
C1143      C1144   1.410       .  A
C1143      C1148   1.402       .  A
C1143      C1157   1.444       .  S
C1144      C1149   1.489       .  S
C1144      C1145   1.400       .  A
C1145      H1164   1.085       .  S
C1145      C1146   1.401       .  A
C1146      C1147   1.419       .  A
C1146      C1158   1.441       .  S
C1147      C1148   1.405       .  A
C1148      H1163   1.079       .  S
C1149      C1150   1.403       .  A
C1149      C1154   1.413       .  A
C1150      H1165   1.085       .  S
C1150      C1151   1.400       .  A
C1151      C1152   1.412       .  A
C1151      C1155   1.444       .  S
C1152      C1153   1.404       .  A
C1153      H1166   1.085       .  S
C1153      C1154   1.405       .  A
C1154      C1156   1.444       .  S
C1155      N1159   1.157       .  T
C1156      N1160   1.157       .  T
C1157      N1162   1.157       .  T
C1158      N1161   1.157       .  T
C1167      C1168   1.413       .  A
C1167      C1172   1.404       .  A
C1167      C1181   1.444       .  S
C1168      C1173   1.492       .  S
C1168      C1169   1.403       .  A
C1169      H1188   1.085       .  S
C1169      C1170   1.402       .  A
C1170      C1171   1.414       .  A
C1170      C1182   1.443       .  S
C1171      C1172   1.406       .  A
C1172      H1187   1.084       .  S
C1173      C1174   1.398       .  A
C1173      C1178   1.413       .  A
C1174      H1189   1.085       .  S
C1174      C1175   1.397       .  A
C1175      C1176   1.421       .  A
C1175      C1179   1.441       .  S
C1176      C1177   1.405       .  A
C1177      H1190   1.084       .  S
C1177      C1178   1.408       .  A
C1178      C1180   1.442       .  S
C1179      N1183   1.156       .  T
C1180      N1184   1.157       .  T
C1181      N1186   1.157       .  T
C1182      N1185   1.157       .  T
C1191      C1192   1.407       .  A
C1191      C1196   1.400       .  A
C1191      C1205   1.444       .  S
C1192      C1197   1.479       .  S
C1192      C1193   1.400       .  A
C1193      H1212   1.085       .  S
C1193      C1194   1.400       .  A
C1194      C1195   1.417       .  A
C1194      C1206   1.443       .  S
C1195      C1196   1.406       .  A
C1196      H1211   1.085       .  S
C1197      C1198   1.397       .  A
C1197      C1202   1.407       .  A
C1198      H1213   1.086       .  S
C1198      C1199   1.395       .  A
C1199      C1200   1.418       .  A
C1199      C1203   1.441       .  S
C1200      C1201   1.408       .  A
C1201      H1214   1.084       .  S
C1201      C1202   1.401       .  A
C1202      C1204   1.443       .  S
C1203      N1207   1.156       .  T
C1204      N1208   1.157       .  T
C1205      N1210   1.157       .  T
C1206      N1209   1.157       .  T
C1215      C1216   1.408       .  A
C1215      C1220   1.401       .  A
C1215      C1229   1.445       .  S
C1216      C1221   1.484       .  S
C1216      C1217   1.401       .  A
C1217      H1236   1.085       .  S
C1217      C1218   1.403       .  A
C1218      C1219   1.417       .  A
C1218      C1230   1.443       .  S
C1219      C1220   1.409       .  A
C1220      H1235   1.083       .  S
C1221      C1222   1.396       .  A
C1221      C1226   1.408       .  A
C1222      H1237   1.086       .  S
C1222      C1223   1.398       .  A
C1223      C1224   1.420       .  A
C1223      C1227   1.439       .  S
C1224      C1225   1.409       .  A
C1225      H1238   1.084       .  S
C1225      C1226   1.403       .  A
C1226      C1228   1.442       .  S
C1227      N1231   1.156       .  T
C1228      N1232   1.157       .  T
C1229      N1234   1.157       .  T
C1230      N1233   1.157       .  T
C1239      C1240   1.415       .  A
C1239      C1244   1.405       .  A
C1239      C1253   1.444       .  S
C1240      C1245   1.496       .  S
C1240      C1241   1.404       .  A
C1241      H1260   1.085       .  S
C1241      C1242   1.403       .  A
C1242      C1243   1.416       .  A
C1242      C1254   1.444       .  S
C1243      C1244   1.404       .  A
C1244      H1259   1.084       .  S
C1245      C1246   1.406       .  A
C1245      C1250   1.415       .  A
C1246      H1261   1.085       .  S
C1246      C1247   1.403       .  A
C1247      C1248   1.413       .  A
C1247      C1251   1.444       .  S
C1248      C1249   1.401       .  A
C1249      H1262   1.085       .  S
C1249      C1250   1.402       .  A
C1250      C1252   1.443       .  S
C1251      N1255   1.157       .  T
C1252      N1256   1.157       .  T
C1253      N1258   1.157       .  T
C1254      N1257   1.157       .  T
C1263      C1264   1.406       .  A
C1263      C1268   1.402       .  A
C1263      C1277   1.443       .  S
C1264      C1269   1.477       .  S
C1264      C1265   1.394       .  A
C1265      H1284   1.086       .  S
C1265      C1266   1.394       .  A
C1266      C1267   1.419       .  A
C1266      C1278   1.438       .  S
C1267      C1268   1.410       .  A
C1268      H1283   1.084       .  S
C1269      C1270   1.398       .  A
C1269      C1274   1.408       .  A
C1270      H1285   1.085       .  S
C1270      C1271   1.399       .  A
C1271      C1272   1.418       .  A
C1271      C1275   1.443       .  S
C1272      C1273   1.408       .  A
C1273      H1286   1.083       .  S
C1273      C1274   1.400       .  A
C1274      C1276   1.445       .  S
C1275      N1279   1.157       .  T
C1276      N1280   1.157       .  T
C1277      N1282   1.157       .  T
C1278      N1281   1.156       .  T
C1287      C1288   1.410       .  A
C1287      C1292   1.400       .  A
C1287      C1301   1.444       .  S
C1288      C1293   1.488       .  S
C1288      C1289   1.405       .  A
C1289      H1308   1.085       .  S
C1289      C1290   1.406       .  A
C1290      C1291   1.412       .  A
C1290      C1302   1.444       .  S
C1291      C1292   1.405       .  A
C1292      H1307   1.085       .  S
C1293      C1294   1.405       .  A
C1293      C1298   1.411       .  A
C1294      H1309   1.084       .  S
C1294      C1295   1.405       .  A
C1295      C1296   1.409       .  A
C1295      C1299   1.442       .  S
C1296      C1297   1.404       .  A
C1297      H1310   1.084       .  S
C1297      C1298   1.398       .  A
C1298      C1300   1.443       .  S
C1299      N1303   1.157       .  T
C1300      N1304   1.157       .  T
C1301      N1306   1.157       .  T
C1302      N1305   1.157       .  T
C1311      C1312   1.413       .  A
C1311      C1316   1.391       .  A
C1311      C1325   1.445       .  S
C1312      C1317   1.492       .  S
C1312      C1313   1.409       .  A
C1313      H1332   1.084       .  S
C1313      C1314   1.407       .  A
C1314      C1315   1.412       .  A
C1314      C1326   1.443       .  S
C1315      C1316   1.395       .  A
C1316      H1331   1.073       .  S
C1317      C1318   1.402       .  A
C1317      C1322   1.414       .  A
C1318      H1333   1.085       .  S
C1318      C1319   1.394       .  A
C1319      C1320   1.420       .  A
C1319      C1323   1.446       .  S
C1320      C1321   1.406       .  A
C1321      H1334   1.084       .  S
C1321      C1322   1.404       .  A
C1322      C1324   1.443       .  S
C1323      N1327   1.158       .  T
C1324      N1328   1.157       .  T
C1325      N1330   1.157       .  T
C1326      N1329   1.157       .  T
C1335      C1336   1.408       .  A
C1335      C1340   1.395       .  A
C1335      C1349   1.445       .  S
C1336      C1341   1.478       .  S
C1336      C1337   1.404       .  A
C1337      H1356   1.085       .  S
C1337      C1338   1.401       .  A
C1338      C1339   1.411       .  A
C1338      C1350   1.444       .  S
C1339      C1340   1.404       .  A
C1340      H1355   1.085       .  S
C1341      C1342   1.395       .  A
C1341      C1346   1.407       .  A
C1342      H1357   1.086       .  S
C1342      C1343   1.396       .  A
C1343      C1344   1.417       .  A
C1343      C1347   1.439       .  S
C1344      C1345   1.409       .  A
C1345      H1358   1.082       .  S
C1345      C1346   1.400       .  A
C1346      C1348   1.443       .  S
C1347      N1351   1.156       .  T
C1348      N1352   1.157       .  T
C1349      N1354   1.157       .  T
C1350      N1353   1.157       .  T
C1359      C1360   1.406       .  A
C1359      C1364   1.397       .  A
C1359      C1373   1.445       .  S
C1360      C1365   1.477       .  S
C1360      C1361   1.401       .  A
C1361      H1380   1.085       .  S
C1361      C1362   1.398       .  A
C1362      C1363   1.417       .  A
C1362      C1374   1.444       .  S
C1363      C1364   1.410       .  A
C1364      H1379   1.084       .  S
C1365      C1366   1.399       .  A
C1365      C1370   1.406       .  A
C1366      H1381   1.086       .  S
C1366      C1367   1.395       .  A
C1367      C1368   1.413       .  A
C1367      C1371   1.439       .  S
C1368      C1369   1.409       .  A
C1369      H1382   1.084       .  S
C1369      C1370   1.399       .  A
C1370      C1372   1.444       .  S
C1371      N1375   1.156       .  T
C1372      N1376   1.157       .  T
C1373      N1378   1.157       .  T
C1374      N1377   1.157       .  T
C1383      C1384   1.404       .  A
C1383      C1388   1.397       .  A
C1383      C1397   1.444       .  S
C1384      C1389   1.468       .  S
C1384      C1385   1.395       .  A
C1385      H1404   1.086       .  S
C1385      C1386   1.394       .  A
C1386      C1387   1.415       .  A
C1386      C1398   1.438       .  S
C1387      C1388   1.410       .  A
C1388      H1403   1.084       .  S
C1389      C1390   1.400       .  A
C1389      C1394   1.403       .  A
C1390      H1405   1.085       .  S
C1390      C1391   1.397       .  A
C1391      C1392   1.415       .  A
C1391      C1395   1.444       .  S
C1392      C1393   1.410       .  A
C1393      H1406   1.084       .  S
C1393      C1394   1.395       .  A
C1394      C1396   1.445       .  S
C1395      N1399   1.157       .  T
C1396      N1400   1.157       .  T
C1397      N1402   1.157       .  T
C1398      N1401   1.156       .  T
C1407      C1408   1.409       .  A
C1407      C1412   1.396       .  A
C1407      C1421   1.444       .  S
C1408      C1413   1.477       .  S
C1408      C1409   1.399       .  A
C1409      H1428   1.085       .  S
C1409      C1410   1.400       .  A
C1410      C1411   1.416       .  A
C1410      C1422   1.441       .  S
C1411      C1412   1.400       .  A
C1412      H1427   1.080       .  S
C1413      C1414   1.400       .  A
C1413      C1418   1.408       .  A
C1414      H1429   1.085       .  S
C1414      C1415   1.398       .  A
C1415      C1416   1.415       .  A
C1415      C1419   1.445       .  S
C1416      C1417   1.407       .  A
C1417      H1430   1.085       .  S
C1417      C1418   1.399       .  A
C1418      C1420   1.444       .  S
C1419      N1423   1.157       .  T
C1420      N1424   1.157       .  T
C1421      N1426   1.157       .  T
C1422      N1425   1.157       .  T
C1431      C1432   1.411       .  A
C1431      C1436   1.399       .  A
C1431      C1445   1.445       .  S
C1432      C1437   1.474       .  S
C1432      C1433   1.398       .  A
C1433      H1452   1.085       .  S
C1433      C1434   1.393       .  A
C1434      C1435   1.416       .  A
C1434      C1446   1.446       .  S
C1435      C1436   1.402       .  A
C1436      H1451   1.085       .  S
C1437      C1438   1.398       .  A
C1437      C1442   1.409       .  A
C1438      H1453   1.086       .  S
C1438      C1439   1.392       .  A
C1439      C1440   1.413       .  A
C1439      C1443   1.440       .  S
C1440      C1441   1.403       .  A
C1441      H1454   1.084       .  S
C1441      C1442   1.397       .  A
C1442      C1444   1.443       .  S
C1443      N1447   1.156       .  T
C1444      N1448   1.157       .  T
C1445      N1450   1.157       .  T
C1446      N1449   1.157       .  T
C1455      C1456   1.406       .  A
C1455      C1460   1.391       .  A
C1455      C1469   1.445       .  S
C1456      C1461   1.476       .  S
C1456      C1457   1.407       .  A
C1457      H1476   1.084       .  S
C1457      C1458   1.402       .  A
C1458      C1459   1.406       .  A
C1458      C1470   1.443       .  S
C1459      C1460   1.406       .  A
C1460      H1475   1.085       .  S
C1461      C1462   1.402       .  A
C1461      C1466   1.408       .  A
C1462      H1477   1.085       .  S
C1462      C1463   1.401       .  A
C1463      C1464   1.412       .  A
C1463      C1467   1.441       .  S
C1464      C1465   1.399       .  A
C1465      H1478   1.082       .  S
C1465      C1466   1.393       .  A
C1466      C1468   1.445       .  S
C1467      N1471   1.157       .  T
C1468      N1472   1.157       .  T
C1469      N1474   1.157       .  T
C1470      N1473   1.157       .  T
C1479      C1480   1.408       .  A
C1479      C1484   1.401       .  A
C1479      C1493   1.444       .  S
C1480      C1485   1.481       .  S
C1480      C1481   1.401       .  A
C1481      H1500   1.085       .  S
C1481      C1482   1.398       .  A
C1482      C1483   1.416       .  A
C1482      C1494   1.444       .  S
C1483      C1484   1.407       .  A
C1484      H1499   1.085       .  S
C1485      C1486   1.396       .  A
C1485      C1490   1.409       .  A
C1486      H1501   1.086       .  S
C1486      C1487   1.397       .  A
C1487      C1488   1.418       .  A
C1487      C1491   1.440       .  S
C1488      C1489   1.409       .  A
C1489      H1502   1.083       .  S
C1489      C1490   1.401       .  A
C1490      C1492   1.444       .  S
C1491      N1495   1.156       .  T
C1492      N1496   1.157       .  T
C1493      N1498   1.157       .  T
C1494      N1497   1.157       .  T
