geometry optimzed in LAMMPS
_audit_creation_date              2020-12-01 
_audit_creation_method            'lammps2cif' 
_symmetry_space_group_name_H-M    'P1' 
_symmetry_Int_Tables_number       1 
_symmetry_cell_setting            triclinic 
loop_ 
_symmetry_equiv_pos_as_xyz 
  x,y,z 
_cell_length_a                    41.03654412 
_cell_length_b                    40.669131708200766 
_cell_length_c                    40.771651049090096 
_cell_angle_alpha                 89.42846834464338 
_cell_angle_beta                  90.27228056657624 
_cell_angle_gamma                 90.94111231195828 
loop_ 
_atom_site_label 
_atom_site_type_symbol 
_atom_site_fract_x 
_atom_site_fract_y 
_atom_site_fract_z 
_atom_site_charge 
N1          N  0.61781625  0.15027071  0.27880726     0.03800
C2          C  0.63233620  0.13604790  0.25299336    -0.06900
C3          C  0.61482198  0.10946151  0.24130444    -0.02500
C4          C  0.58621103  0.10966935  0.26156915    -0.03200
C5          C  0.58931570  0.13506079  0.28573544    -0.07000
N6          N  0.36550104  0.12578415  0.26150742     0.03800
C7          C  0.34189001  0.10904658  0.24565848    -0.06900
C8          C  0.34028819  0.07704325  0.25677196    -0.02500
C9          C  0.36344659  0.07477918  0.28166525    -0.03200
C10         C  0.37786443  0.10572404  0.28461548    -0.07000
C11         C  0.48368986  0.18914982  0.41149050     0.35400
C12         C  0.53047475  0.17109373  0.36600664     0.35400
C13         C  0.47455936  0.15957261  0.39005030    -0.00800
C14         C  0.49335181  0.21578210  0.38562656    -0.01600
C15         C  0.51648424  0.17932613  0.42551021    -0.01400
C16         C  0.49825109  0.15055425  0.36685617    -0.00800
C17         C  0.51674804  0.20672669  0.36231557    -0.01600
C18         C  0.54129865  0.17082190  0.40367769    -0.01400
C19         C  0.48139084  0.13518988  0.34159005    -0.26800
N20         N  0.44922923  0.13404416  0.34868621     0.19700
C21         C  0.44462940  0.14959137  0.37746454    -0.26800
H22         H  0.42104551  0.15630164  0.38686854     0.21600
C23         C  0.52053136  0.23378934  0.34124783    -0.25800
N24         N  0.50056969  0.25848379  0.35096247     0.18400
C25         C  0.48392784  0.24760194  0.37792126    -0.25800
C26         C  0.56964879  0.17214322  0.42377992    -0.26100
N27         N  0.56133084  0.17897583  0.45581665     0.18900
H28         H  0.59445360  0.17039745  0.41517588     0.21500
C29         C  0.52900881  0.18323928  0.45646917    -0.26100
H30         H  0.51580577  0.19173855  0.47763187     0.21500
H31         H  0.46598485  0.26166877  0.39087110     0.21500
H32         H  0.49143126  0.12855594  0.31809089     0.21600
H33         H  0.53661717  0.23529123  0.32030995     0.21500
N34         N  0.38426199  0.83138313  0.25807317     0.03800
C35         C  0.40318975  0.81123456  0.27649922    -0.06900
C36         C  0.43222471  0.82635887  0.28559770    -0.02500
C37         C  0.43004645  0.85803898  0.27179132    -0.03200
C38         C  0.40049258  0.86012355  0.25371386    -0.07000
N39         N  0.67248291  0.84894192  0.23259243     0.03800
C40         C  0.68696108  0.86830233  0.21003463    -0.06900
C41         C  0.66923868  0.89640399  0.20480143    -0.02500
C42         C  0.64270493  0.89359530  0.22619341    -0.03200
C43         C  0.64542387  0.86349682  0.24303614    -0.07000
C44         C  0.71738531  0.02437877  0.10400264     0.35400
C45         C  0.69645378  0.97175498  0.14028402     0.35400
C46         C  0.70996272  0.99251106  0.08433982    -0.00800
C47         C  0.74197131  0.01174612  0.13033669    -0.01600
C48         C  0.68594809  0.03051787  0.12516125    -0.01400
C49         C  0.69972202  0.96499915  0.10273518    -0.00800
C50         C  0.73049980  0.98489119  0.14875846    -0.01600
C51         C  0.67533317  0.00306538  0.14350595    -0.01400
C52         C  0.71094554  0.93758665  0.08509443    -0.26800
N53         N  0.72538022  0.94733081  0.05624468     0.19700
C54         C  0.72559609  0.98070206  0.05637645    -0.26800
H55         H  0.73911886  0.99572496  0.03890821     0.21600
C56         C  0.75453577  0.97558087  0.17026243    -0.25800
N57         N  0.78073601  0.99571198  0.16592052     0.18400
C58         C  0.77359787  0.01808577  0.14172728    -0.25800
C59         C  0.65721383  0.01487332  0.17004153    -0.26100
N60         N  0.65553357  0.04834654  0.16899898     0.18900
H61         H  0.64830006  0.99995084  0.19033450     0.21500
C62         C  0.67417082  0.05800309  0.14250994    -0.26100
H63         H  0.68092315  0.08334486  0.13730209     0.21500
H64         H  0.79004445  0.03730504  0.13304850     0.21500
H65         H  0.71089979  0.91251246  0.09424086     0.21600
H66         H  0.75317296  0.95537313  0.18773116     0.21500
C67         C  0.50740136  0.79144579  0.34865074     0.35400
C68         C  0.55952572  0.77447126  0.38810700     0.35400
C69         C  0.50361429  0.79846977  0.38584665    -0.00800
C70         C  0.51626193  0.75470456  0.34891434    -0.01600
C71         C  0.54067386  0.80787473  0.34028063    -0.01400
C72         C  0.53085253  0.79043071  0.40534968    -0.00800
C73         C  0.54272116  0.74586807  0.36915294    -0.01600
C74         C  0.56726845  0.79939847  0.36029792    -0.01400
C75         C  0.52036949  0.78536774  0.43702259    -0.26800
N76         N  0.48793147  0.78897581  0.43811202     0.19700
C77         C  0.47709735  0.79565658  0.40713244    -0.26800
H78         H  0.45170397  0.79494346  0.39982671     0.21600
C79         C  0.55273823  0.71536535  0.35845694    -0.25800
N80         N  0.53281536  0.70522344  0.33363015     0.18400
C81         C  0.51098131  0.72920636  0.32725381    -0.25800
C82         C  0.59519726  0.80934846  0.34356224    -0.26100
N83         N  0.58635061  0.82404001  0.31479173     0.18900
H84         H  0.62006484  0.80453267  0.35089581     0.21500
C85         C  0.55334969  0.82264204  0.31229030    -0.26100
H86         H  0.53960448  0.83027915  0.29087987     0.21500
H87         H  0.49417170  0.72924645  0.30670767     0.21500
H88         H  0.53469109  0.77516327  0.45694089     0.21600
H89         H  0.57436070  0.70265435  0.36652889     0.21500
C90         C  0.29232029  0.97293777  0.13737383     0.35400
C91         C  0.30439431  0.00968023  0.19244836     0.35400
C92         C  0.30914202  0.00654779  0.13229748    -0.00800
C93         C  0.26109710  0.98270255  0.15833929    -0.01600
C94         C  0.31521509  0.95661674  0.16450246    -0.01400
C95         C  0.31521826  0.02532259  0.16010058    -0.00800
C96         C  0.26842196  0.00135294  0.18631843    -0.01600
C97         C  0.32058734  0.97607802  0.19225811    -0.01400
C98         C  0.31808272  0.05773378  0.14971006    -0.26800
N99         N  0.31528736  0.05866046  0.11664376     0.19700
C100        C  0.30918816  0.02795399  0.10585771    -0.26800
H101        H  0.30168747  0.02219723  0.08103991     0.21600
C102        C  0.23994063  0.00858785  0.20241286    -0.25800
N103        N  0.21428114  0.99510086  0.18611194     0.18400
C104        C  0.22666418  0.97918562  0.15919042    -0.25800
C105        C  0.34101125  0.95984625  0.21382521    -0.26100
N106        N  0.34902917  0.93046775  0.20107178     0.18900
H107        H  0.34949067  0.96893940  0.23729441     0.21500
C108        C  0.33349636  0.92802786  0.17102811    -0.26100
H109        H  0.33520802  0.90707864  0.15501722     0.21500
H110        H  0.21193339  0.96568225  0.14166473     0.21500
H111        H  0.31867659  0.07918481  0.16523466     0.21600
H112        H  0.23812493  0.02250101  0.22482056     0.21500
N113        N  0.19824161  0.24954174  0.64933839     0.03800
C114        C  0.18050501  0.22745346  0.66712887    -0.06900
C115        C  0.14881836  0.22348710  0.65595302    -0.02500
C116        C  0.14862671  0.24570756  0.62843248    -0.03200
C117        C  0.17980102  0.26131197  0.62481013    -0.07000
N118        N  0.18054701  0.18980338  0.41074458     0.03800
C119        C  0.15862866  0.16990178  0.39622978    -0.06900
C120        C  0.13181468  0.16623637  0.41596712    -0.02500
C121        C  0.13666112  0.18751810  0.44219565    -0.03200
C122        C  0.16703868  0.20218642  0.43774553    -0.07000
C123        C  0.21894884  0.32944090  0.55330964     0.35400
C124        C  0.23477924  0.36565354  0.49753244     0.35400
C125        C  0.21684331  0.36770052  0.55628892    -0.00800
C126        C  0.25432411  0.32505149  0.53997227    -0.01600
C127        C  0.19861290  0.32236223  0.52220639    -0.01400
C128        C  0.22403195  0.38516492  0.52724475    -0.00800
C129        C  0.26250954  0.34401077  0.51187264    -0.01600
C130        C  0.20689672  0.34024055  0.49332705    -0.01400
C131        C  0.23114380  0.41731989  0.53482544    -0.26800
N132        N  0.23006379  0.42090942  0.56745042     0.19700
C133        C  0.22277140  0.39078110  0.58116729    -0.26800
H134        H  0.22442775  0.38526816  0.60713562     0.21600
C135        C  0.29171762  0.33193209  0.50013478    -0.25800
N136        N  0.30194948  0.30701987  0.52011402     0.18400
C137        C  0.27921903  0.30246732  0.54419998    -0.25800
C138        C  0.20097679  0.31863774  0.46758968    -0.26100
N139        N  0.18800167  0.29013698  0.47961882     0.18900
H140        H  0.20927727  0.32202934  0.44259802     0.21500
C141        C  0.18685284  0.29205991  0.51244798    -0.26100
H142        H  0.18217589  0.27111257  0.52846413     0.21500
H143        H  0.27972495  0.28290076  0.56237581     0.21500
H144        H  0.24054606  0.43594597  0.51803378     0.21600
H145        H  0.30357941  0.33943050  0.47754937     0.21500
N146        N  0.85776481  0.23334043  0.39383917     0.03800
C147        C  0.87555866  0.21097071  0.37705763    -0.06900
C148        C  0.90858361  0.20979171  0.38526904    -0.02500
C149        C  0.90901888  0.23626314  0.40993658    -0.03200
C150        C  0.87645557  0.24984138  0.41531579    -0.07000
N151        N  0.86840688  0.20583476  0.63872821     0.03800
C152        C  0.89276561  0.18815441  0.65126051    -0.06900
C153        C  0.92126070  0.19753025  0.63583236    -0.02500
C154        C  0.91483467  0.22433095  0.61598750    -0.03200
C155        C  0.88161793  0.22815474  0.61811522    -0.07000
C156        C  0.08194929  0.15351780  0.70257184     0.35400
C157        C  0.04151315  0.10098569  0.72545564     0.35400
C158        C  0.09690511  0.11938516  0.70485482    -0.00800
C159        C  0.06745205  0.15702649  0.73784642    -0.01600
C160        C  0.05132098  0.14540519  0.68254065    -0.01400
C161        C  0.07680245  0.09320316  0.71616851    -0.00800
C162        C  0.04713921  0.13072725  0.74955089    -0.01600
C163        C  0.03082288  0.11923617  0.69399054    -0.01400
C164        C  0.09474298  0.06522099  0.71407053    -0.26800
N165        N  0.12446390  0.07362633  0.70199597     0.19700
C166        C  0.12629633  0.10642119  0.69646943    -0.26800
H167        H  0.14769521  0.11983493  0.68796770     0.21600
C168        C  0.03740084  0.13975477  0.78102353    -0.25800
N169        N  0.05080050  0.16981807  0.78871170     0.18400
C170        C  0.06897471  0.18034324  0.76255982    -0.25800
C171        C  0.00060332  0.12473622  0.68069745    -0.26100
N172        N  0.00259835  0.15187254  0.66133739     0.18900
H173        H  0.97808074  0.11235458  0.68767401     0.21500
C174        C  0.03288439  0.16498283  0.66263939    -0.26100
H175        H  0.03976161  0.18913043  0.65328074     0.21500
H176        H  0.08256529  0.20336359  0.76155935     0.21500
H177        H  0.08722205  0.04068965  0.72175014     0.21600
H178        H  0.02175551  0.12534455  0.79714029     0.21500
C179        C  0.80716928  0.36868200  0.52644448     0.35400
C180        C  0.82643073  0.32335643  0.47813823     0.35400
C181        C  0.83230323  0.34357746  0.53701005    -0.00800
C182        C  0.77959223  0.34595816  0.51246975    -0.01600
C183        C  0.82269583  0.38275584  0.49585193    -0.01400
C184        C  0.84144624  0.32040107  0.51267519    -0.00800
C185        C  0.78890318  0.32204889  0.48870412    -0.01600
C186        C  0.83157093  0.36132496  0.47055106    -0.01400
C187        C  0.84684440  0.29154201  0.52934542    -0.26800
N188        N  0.84320174  0.29659185  0.56158512     0.19700
C189        C  0.83395870  0.32760028  0.56682673    -0.26800
H190        H  0.82633024  0.33699869  0.59028398     0.21600
C191        C  0.76442895  0.29733543  0.49119487    -0.25800
N192        N  0.74113377  0.30594387  0.51355599     0.18400
C193        C  0.75081609  0.33493067  0.52687441    -0.25800
C194        C  0.83253082  0.38222675  0.44275629    -0.26100
N195        N  0.82790282  0.41420008  0.45215647     0.18900
H196        H  0.83380713  0.37433008  0.41753798     0.21500
C197        C  0.82189486  0.41419661  0.48433170    -0.26100
H198        H  0.81320920  0.43524959  0.49763546     0.21500
H199        H  0.73917103  0.34608239  0.54768272     0.21500
H200        H  0.85177309  0.26792438  0.51853852     0.21600
H201        H  0.76487532  0.27378178  0.47910626     0.21500
C202        C  0.97189179  0.13741125  0.33080717     0.35400
C203        C  0.01281409  0.08833625  0.29952664     0.35400
C204        C  0.95864385  0.10111801  0.32786727    -0.00800
C205        C  0.98241025  0.14357882  0.29402886    -0.01600
C206        C  0.00580954  0.13007872  0.34569142    -0.01400
C207        C  0.97933982  0.07762253  0.31280939    -0.00800
C208        C  0.00239234  0.11941465  0.27851101    -0.01600
C209        C  0.02586947  0.10609349  0.33050017    -0.01400
C210        C  0.96284273  0.04843328  0.31140950    -0.26800
N211        N  0.93294548  0.05239022  0.32407995     0.19700
C212        C  0.92958074  0.08415676  0.33385561    -0.26800
H213        H  0.90723338  0.09454246  0.34279672     0.21600
C214        C  0.00869196  0.13158863  0.24703656    -0.25800
N215        N  0.99389927  0.16121402  0.24267476     0.18400
C216        C  0.97797243  0.16856478  0.27094091    -0.25800
C217        C  0.05476850  0.10606354  0.34761638    -0.26100
N218        N  0.05282824  0.12831936  0.37204496     0.18900
H219        H  0.07616783  0.09204585  0.34186691     0.21500
C220        C  0.02355300  0.14311739  0.37112177    -0.26100
H221        H  0.01635193  0.16297287  0.38689441     0.21500
H222        H  0.96431846  0.19075644  0.27466169     0.21500
H223        H  0.97114062  0.02629554  0.29970857     0.21600
H224        H  0.02343143  0.11982400  0.22875255     0.21500
N225        N  0.28101742  0.60327467  0.18997659     0.03800
C226        C  0.26372962  0.62351293  0.16992885    -0.06900
C227        C  0.26372587  0.61189729  0.13835267    -0.02500
C228        C  0.28571201  0.58507319  0.13974825    -0.03200
C229        C  0.29529156  0.57942518  0.17275223    -0.07000
N230        N  0.24182473  0.35025978  0.16300725     0.03800
C231        C  0.21599843  0.34084312  0.14484583    -0.06900
C232        C  0.21931222  0.35276443  0.11290694    -0.02500
C233        C  0.24876746  0.37060755  0.11263575    -0.03200
C234        C  0.26173747  0.36876920  0.14436424    -0.07000
C235        C  0.35978708  0.50683777  0.21668142     0.35400
C236        C  0.40000237  0.45606942  0.23876578     0.35400
C237        C  0.39752965  0.51299800  0.21467181    -0.00800
C238        C  0.35555604  0.49568019  0.25331545    -0.01600
C239        C  0.35605973  0.47320691  0.19951866    -0.01400
C240        C  0.41675859  0.48681564  0.22545259    -0.00800
C241        C  0.37635627  0.47029979  0.26435938    -0.01600
C242        C  0.37672453  0.44746681  0.21012451    -0.01400
C243        C  0.44878971  0.49620800  0.22456565    -0.26800
N244        N  0.45074925  0.52772045  0.21463571     0.19700
C245        C  0.41983769  0.53876289  0.20878949    -0.26800
H246        H  0.41387368  0.56398041  0.20295853     0.21600
C247        C  0.36330364  0.45777828  0.29323029    -0.25800
N248        N  0.33601241  0.47452077  0.30075712     0.18400
C249        C  0.33071634  0.49723064  0.27646945    -0.25800
C250        C  0.36172352  0.41824432  0.20061831    -0.26100
N251        N  0.33352331  0.42533841  0.18478263     0.18900
H252        H  0.36947145  0.39367601  0.20699521     0.21500
C253        C  0.32905626  0.45811822  0.18586691    -0.26100
H254        H  0.30619811  0.46977999  0.18043041     0.21500
H255        H  0.30930513  0.51234106  0.27463067     0.21500
H256        H  0.46920521  0.48197378  0.23335409     0.21600
H257        H  0.37191638  0.43649674  0.30665099     0.21500
N258        N  0.27399541  0.37597572  0.86263935     0.03800
C259        C  0.29957122  0.39096318  0.84762437    -0.06900
C260        C  0.30504827  0.42267581  0.85841658    -0.02500
C261        C  0.28063205  0.42626944  0.88248315    -0.03200
C262        C  0.26196709  0.39630188  0.88519299    -0.07000
N263        N  0.31479555  0.67458354  0.89383504     0.03800
C264        C  0.29343253  0.69291691  0.91019926    -0.06900
C265        C  0.28438636  0.67799550  0.93921035    -0.02500
C266        C  0.30310978  0.64938029  0.94081172    -0.03200
C267        C  0.32062540  0.64729083  0.91137700    -0.07000
C268        C  0.14916460  0.72528265  0.02797179     0.35400
C269        C  0.20267366  0.71004865  0.99016994     0.35400
C270        C  0.14255480  0.71150511  0.99358129    -0.00800
C271        C  0.17399738  0.75508070  0.01965464    -0.01600
C272        C  0.17319881  0.69852285  0.04304743    -0.01400
C273        C  0.16909766  0.70416659  0.97385645    -0.00800
C274        C  0.20109347  0.74625016  0.00072782    -0.01600
C275        C  0.19978498  0.69161077  0.02293888    -0.01400
C276        C  0.15696608  0.70361268  0.94171846    -0.26800
N277        N  0.12406611  0.70810693  0.94241547     0.19700
C278        C  0.11541811  0.71329525  0.97366595    -0.26800
H279        H  0.09142467  0.72111668  0.98088935     0.21600
C280        C  0.22101149  0.77373941  0.99595812    -0.25800
N281        N  0.20799694  0.80005647  0.01103529     0.18400
C282        C  0.17940606  0.78908060  0.02566712    -0.25800
C283        C  0.22064197  0.67070413  0.03927468    -0.26100
N284        N  0.20898189  0.66391235  0.06950904     0.18900
H285        H  0.24365922  0.66204096  0.03009560     0.21500
C286        C  0.18018956  0.68091021  0.07250951    -0.26100
H287        H  0.16588160  0.68149171  0.09470969     0.21500
H288        H  0.16375321  0.80443843  0.04004817     0.21500
H289        H  0.17133493  0.70257915  0.91957245     0.21600
H290        H  0.24369295  0.77437026  0.98248848     0.21500
C291        C  0.37997623  0.48989250  0.82456505     0.35400
C292        C  0.42235464  0.53887106  0.80206333     0.35400
C293        C  0.41718912  0.48036016  0.82156367    -0.00800
C294        C  0.37320979  0.50360682  0.78957020    -0.01600
C295        C  0.38148761  0.52246677  0.84472899    -0.01400
C296        C  0.43762942  0.50615725  0.81084718    -0.00800
C297        C  0.39470726  0.52827615  0.77786587    -0.01600
C298        C  0.40334986  0.54698026  0.83335903    -0.01400
C299        C  0.46808991  0.49441960  0.80441949    -0.26800
N300        N  0.46819688  0.46181662  0.80983081     0.19700
C301        C  0.43726263  0.45243584  0.81975963    -0.26800
H302        H  0.42932037  0.42718632  0.82351643     0.21600
C303        C  0.38428878  0.53618553  0.74622885    -0.25800
N304        N  0.35754495  0.51726297  0.73859962     0.18400
C305        C  0.35066560  0.49744137  0.76484976    -0.25800
C306        C  0.39459370  0.57629240  0.84774155    -0.26100
N307        N  0.36886923  0.57075778  0.86803517     0.18900
H308        H  0.40465427  0.60038967  0.84181618     0.21500
C309        C  0.36023636  0.53827176  0.86590674    -0.26100
H310        H  0.33861845  0.52738797  0.87694067     0.21500
H311        H  0.33082901  0.47958507  0.76583043     0.21500
H312        H  0.48830038  0.50836576  0.79398412     0.21600
H313        H  0.39542484  0.55428484  0.72998382     0.21500
C314        C  0.13147316  0.29531184  0.98139581     0.35400
C315        C  0.16470416  0.32250306  0.03237168     0.35400
C316        C  0.11058786  0.30442418  0.01127492    -0.00800
C317        C  0.15813963  0.27349304  0.99689333    -0.01600
C318        C  0.15091473  0.32754384  0.97259866    -0.01400
C319        C  0.12739249  0.31798803  0.03776745    -0.00800
C320        C  0.17491127  0.28784335  0.02300062    -0.01600
C321        C  0.16825054  0.34152690  0.99902519    -0.01400
C322        C  0.10783906  0.31135356  0.06534965    -0.26800
N323        N  0.07941346  0.29599855  0.05605581     0.19700
C324        C  0.08144203  0.29100606  0.02328500    -0.26800
H325        H  0.06430945  0.27597503  0.00950643     0.21600
C326        C  0.19868022  0.26655411  0.03312945    -0.25800
N327        N  0.19718950  0.23954457  0.01400615     0.18400
C328        C  0.17263720  0.24330975  0.99163168    -0.25800
C329        C  0.19429124  0.35965327  0.98516417    -0.26100
N330        N  0.19304477  0.35836267  0.95172504     0.18900
H331        H  0.21427416  0.37072340  0.99879170     0.21500
C332        C  0.16750695  0.33780337  0.94409361    -0.26100
H333        H  0.16270759  0.32863796  0.91968180     0.21500
H334        H  0.16637808  0.22592473  0.97259162     0.21500
H335        H  0.11510862  0.31511923  0.09060452     0.21600
H336        H  0.21635102  0.27073879  0.05251339     0.21500
N337        N  0.77808137  0.35737143  0.17380531     0.03800
C338        C  0.75451487  0.37102705  0.19180978    -0.06900
C339        C  0.73963061  0.39660928  0.17552234    -0.02500
C340        C  0.75555896  0.39780910  0.14489608    -0.03200
C341        C  0.77961711  0.37336570  0.14484794    -0.07000
N342        N  0.82565535  0.62385772  0.14206063     0.03800
C343        C  0.80457112  0.60877941  0.16257514    -0.06900
C344        C  0.78393369  0.58800845  0.14583938    -0.02500
C345        C  0.79267953  0.59069701  0.11311837    -0.03200
C346        C  0.81974973  0.61172195  0.11204925    -0.07000
N347        N  0.77805798  0.62571911  0.84235537     0.03800
C348        C  0.79931358  0.64416775  0.86067625    -0.06900
C349        C  0.81056768  0.62802808  0.88877554    -0.02500
C350        C  0.79145299  0.59764174  0.88686174    -0.03200
C351        C  0.77224576  0.59633336  0.85688963    -0.07000
N352        N  0.80437086  0.35386430  0.86771923     0.03800
C353        C  0.82356382  0.33551901  0.88716409    -0.06900
C354        C  0.82130047  0.34531243  0.91943885    -0.02500
C355        C  0.79860530  0.37045634  0.91923384    -0.03200
C356        C  0.78877719  0.37530562  0.88663260    -0.07000
C357        C  0.70239878  0.52299991  0.81541284     0.35400
C358        C  0.65797503  0.47183467  0.79960299     0.35400
C359        C  0.66468266  0.53161354  0.81413771    -0.00800
C360        C  0.70679476  0.50627835  0.78066294    -0.01600
C361        C  0.70251273  0.49150570  0.83761368    -0.01400
C362        C  0.64360181  0.50508440  0.80680764    -0.00800
C363        C  0.68394148  0.48082562  0.77293278    -0.01600
C364        C  0.67973527  0.46586389  0.82983913    -0.01400
C365        C  0.61264852  0.51621884  0.80161111    -0.26800
N366        N  0.61260693  0.54906074  0.80428444     0.19700
C367        C  0.64416452  0.55923562  0.81119870    -0.26800
H368        H  0.65210973  0.58470843  0.81217558     0.21600
C369        C  0.69314301  0.46758949  0.74309732    -0.25800
N370        N  0.72045075  0.48342059  0.73173950     0.18400
C371        C  0.72900338  0.50691254  0.75442899    -0.25800
C372        C  0.69374855  0.43662682  0.83990068    -0.26100
N373        N  0.72313481  0.44297765  0.85375840     0.18900
H374        H  0.68475102  0.41219998  0.83401654     0.21500
C375        C  0.72912540  0.47578403  0.85157760    -0.26100
H376        H  0.75271546  0.48712118  0.85608729     0.21500
H377        H  0.75020335  0.52297395  0.75244442     0.21500
H378        H  0.59184848  0.50150858  0.79374153     0.21600
H379        H  0.68111580  0.44718564  0.73091190     0.21500
C380        C  0.90637106  0.27812719  0.04842298     0.35400
C381        C  0.87044595  0.30219516  0.99763597     0.35400
C382        C  0.92552066  0.28805211  0.01754874    -0.00800
C383        C  0.87991747  0.25423953  0.03476466    -0.01600
C384        C  0.88646856  0.30927313  0.05648061    -0.01400
C385        C  0.90755778  0.30010655  0.99135343    -0.00800
C386        C  0.86142854  0.26678114  0.00878151    -0.01600
C387        C  0.86804814  0.32163870  0.03004109    -0.01400
C388        C  0.92836196  0.29998847  0.96428194    -0.26800
N389        N  0.95830260  0.28912638  0.97397003     0.19700
C390        C  0.95652802  0.28143801  0.00632043    -0.26800
H391        H  0.97570069  0.26960948  0.02018378     0.21600
C392        C  0.83880852  0.24267487  0.00018586    -0.25800
N393        N  0.84292677  0.21593369  0.02003686     0.18400
C394        C  0.86792026  0.22268703  0.04125292    -0.25800
C395        C  0.84237337  0.33896782  0.04346261    -0.26100
N396        N  0.84454741  0.33840153  0.07670390     0.18900
H397        H  0.82188435  0.34872736  0.02989797     0.21500
C398        C  0.87048051  0.31933959  0.08485676    -0.26100
H399        H  0.87587276  0.31100860  0.10956024     0.21500
H400        H  0.87651203  0.20607119  0.06018550     0.21500
H401        H  0.92153171  0.30530611  0.93913412     0.21600
H402        H  0.82055346  0.24455391  0.98103734     0.21500
C403        C  0.88466988  0.67587333  0.95336857     0.35400
C404        C  0.93401570  0.70452578  0.99558284     0.35400
C405        C  0.92014992  0.67721717  0.94089906    -0.00800
C406        C  0.88028648  0.71246311  0.96385740    -0.01600
C407        C  0.89010711  0.65967309  0.98712831    -0.01400
C408        C  0.94416953  0.69109465  0.96201409    -0.00800
C409        C  0.90472941  0.72702167  0.98457220    -0.01600
C410        C  0.91408291  0.67390924  0.00888596    -0.01400
C411        C  0.97300226  0.69137331  0.94540909    -0.26800
N412        N  0.96776485  0.67876217  0.91527257     0.19700
C413        C  0.93575484  0.67030953  0.91187370    -0.26800
H414        H  0.92435788  0.66193746  0.88939302     0.21600
C415        C  0.89339547  0.75835368  0.99181031    -0.25800
N416        N  0.86398875  0.76323454  0.97661162     0.18400
C417        C  0.85597396  0.73548610  0.95972703    -0.25800
C418        C  0.90314462  0.66517100  0.04010137    -0.26100
N419        N  0.87611436  0.64544621  0.03746212     0.18900
H420        H  0.91248457  0.67487531  0.06297853     0.21500
C421        C  0.86795007  0.64240040  0.00569977    -0.26100
H422        H  0.84527377  0.63155248  0.99696237     0.21500
H423        H  0.83366395  0.73197647  0.94583082     0.21500
H424        H  0.99576859  0.70238542  0.95369000     0.21600
H425        H  0.90542591  0.77601930  0.00764504     0.21500
C426        C  0.66887575  0.46067613  0.21211559     0.35400
C427        C  0.63137631  0.51401834  0.22562454     0.35400
C428        C  0.63139226  0.45524693  0.20788814    -0.00800
C429        C  0.67142590  0.47353311  0.24757764    -0.01600
C430        C  0.67610919  0.49219588  0.19216943    -0.01400
C431        C  0.61281498  0.48341439  0.21397706    -0.00800
C432        C  0.65197980  0.50066215  0.25462426    -0.01600
C433        C  0.65698027  0.51972530  0.19887351    -0.01400
C434        C  0.58203676  0.47338095  0.22320811    -0.26800
N435        N  0.58046583  0.44044490  0.22413413     0.19700
C436        C  0.61048892  0.42891092  0.21634899    -0.26800
H437        H  0.61775445  0.40366289  0.21995323     0.21600
C438        C  0.66053125  0.51097502  0.28577146    -0.25800
N439        N  0.68408563  0.49092945  0.29775431     0.18400
C440        C  0.69106026  0.46817974  0.27467425    -0.25800
C441        C  0.67632874  0.54718896  0.19179810    -0.26100
N442        N  0.70530442  0.53715638  0.18011280     0.18900
H443        H  0.67072828  0.57243108  0.19740540     0.21500
C444        C  0.70583710  0.50410471  0.18125579    -0.26100
H445        H  0.72729703  0.48969165  0.17678240     0.21500
H446        H  0.71012625  0.45018517  0.27679954     0.21500
H447        H  0.56346184  0.48902703  0.23315307     0.21600
H448        H  0.65160751  0.53249505  0.29804867     0.21500
N449        N  0.42146785  0.15686076  0.77769583     0.03800
C450        C  0.40370868  0.14250023  0.80200139    -0.06900
C451        C  0.41396880  0.11134624  0.81146947    -0.02500
C452        C  0.44286518  0.10860449  0.79103640    -0.03200
C453        C  0.44618864  0.13742749  0.76952021    -0.07000
N454        N  0.68437864  0.11162642  0.75427764     0.03800
C455        C  0.70839570  0.09571511  0.76942190    -0.06900
C456        C  0.69985025  0.06361475  0.77491269    -0.02500
C457        C  0.66841872  0.05963922  0.76211028    -0.03200
C458        C  0.66013459  0.08998470  0.74858151    -0.07000
N459        N  0.68027875  0.84745617  0.72796557     0.03800
C460        C  0.66024373  0.83287223  0.70596280    -0.06900
C461        C  0.62773000  0.83985333  0.71232039    -0.02500
C462        C  0.62898434  0.85897311  0.74113554    -0.03200
C463        C  0.66205893  0.86362409  0.74943359    -0.07000
N464        N  0.37216917  0.88424218  0.72491917     0.03800
C465        C  0.35411205  0.90094606  0.74653643    -0.06900
C466        C  0.37408748  0.91705691  0.76858446    -0.02500
C467        C  0.40575483  0.91135519  0.75857107    -0.03200
C468        C  0.40373524  0.89170592  0.73113199    -0.07000
C469        C  0.54920681  0.80586669  0.65311614     0.35400
C470        C  0.49633341  0.78697609  0.61573585     0.35400
C471        C  0.55533602  0.80317095  0.61543864    -0.00800
C472        C  0.53442953  0.77182275  0.66115266    -0.01600
C473        C  0.51884994  0.82798859  0.65511214    -0.01400
C474        C  0.52755954  0.79440920  0.59693670    -0.00800
C475        C  0.50755529  0.76186988  0.64212288    -0.01600
C476        C  0.49192313  0.81836232  0.63560363    -0.01400
C477        C  0.53735355  0.78168316  0.56762880    -0.26800
N478        N  0.57000138  0.78126410  0.56702338     0.19700
C479        C  0.58149279  0.79289257  0.59629526    -0.26800
H480        H  0.60663128  0.79149525  0.60425892     0.21600
C481        C  0.49856840  0.73071922  0.65318655    -0.25800
N482        N  0.51921436  0.72193056  0.67790868     0.18400
C483        C  0.54104358  0.74676913  0.68298356    -0.25800
C484        C  0.46451031  0.83095796  0.65003843    -0.26100
N485        N  0.47353622  0.84846043  0.67670502     0.18900
H486        H  0.43950645  0.82525894  0.64330560     0.21500
C487        C  0.50624635  0.84606028  0.68073168    -0.26100
H488        H  0.51953654  0.85432720  0.70220986     0.21500
H489        H  0.56037387  0.74652627  0.70114446     0.21500
H490        H  0.52174427  0.76996453  0.54953389     0.21600
H491        H  0.47861939  0.71563812  0.64400604     0.21500
C492        C  0.35749103  0.04856704  0.88203061     0.35400
C493        C  0.32831316  0.00381193  0.92783249     0.35400
C494        C  0.36388487  0.05478720  0.91886937    -0.00800
C495        C  0.31913984  0.04524206  0.88099712    -0.01600
C496        C  0.36617975  0.01219378  0.87915099    -0.01400
C497        C  0.34986968  0.03180645  0.94134824    -0.00800
C498        C  0.30446981  0.02289080  0.90465840    -0.01600
C499        C  0.35120398  0.98886258  0.90146390    -0.01400
C500        C  0.34693323  0.04736043  0.97084754    -0.26800
N501        N  0.35731087  0.07875070  0.96762532     0.19700
C502        C  0.36666142  0.08401875  0.93607610    -0.26800
H503        H  0.37081517  0.10812499  0.92522961     0.21600
C504        C  0.27582440  0.01108628  0.89019705    -0.25800
N505        N  0.27161352  0.02505880  0.86016221     0.18400
C506        C  0.29798444  0.04491959  0.85403875    -0.25800
C507        C  0.34669759  0.96049306  0.88272690    -0.26100
N508        N  0.35915489  0.96566437  0.85224635     0.18900
H509        H  0.33243319  0.93897705  0.88980573     0.21500
C510        C  0.37016073  0.99672660  0.84986805    -0.26100
H511        H  0.37751410  0.00850431  0.82705203     0.21500
H512        H  0.30337443  0.05564942  0.83023143     0.21500
H513        H  0.33308179  0.03807078  0.99162024     0.21600
H514        H  0.26112772  0.99071811  0.89946857     0.21500
C515        C  0.75143200  0.00215423  0.83525299     0.35400
C516        C  0.77246034  0.95505070  0.87757814     0.35400
C517        C  0.73658431  0.96777105  0.83046553    -0.00800
C518        C  0.78847705  0.99560362  0.83367033    -0.01600
C519        C  0.74562428  0.00910094  0.87182682    -0.01400
C520        C  0.74673032  0.94329623  0.85199027    -0.00800
C521        C  0.79977523  0.97144005  0.85551438    -0.01600
C522        C  0.75628591  0.98469432  0.89288127    -0.01400
C523        C  0.73145404  0.91428047  0.84135576    -0.26800
N524        N  0.71281776  0.92120990  0.81429246     0.19700
C525        C  0.71619099  0.95367577  0.80743783    -0.26800
H526        H  0.70483757  0.96613561  0.78686415     0.21600
C527        C  0.83303041  0.96811421  0.84849830    -0.25800
N528        N  0.84187791  0.98944474  0.82361929     0.18400
C529        C  0.81467820  0.00614677  0.81455812    -0.25800
C530        C  0.75383333  0.99587722  0.92449395    -0.26100
N531        N  0.74235649  0.02670704  0.92362742     0.18900
H532        H  0.76233260  0.98351601  0.94649447     0.21500
C533        C  0.73763954  0.03557756  0.89156748    -0.26100
H534        H  0.73119673  0.05996017  0.88316625     0.21500
H535        H  0.81374988  0.02417867  0.79488156     0.21500
H536        H  0.73437761  0.88999990  0.85194705     0.21600
H537        H  0.84927402  0.95076794  0.86008784     0.21500
C538        C  0.50931007  0.17989558  0.69340204     0.35400
C539        C  0.55660286  0.20110750  0.64781362     0.35400
C540        C  0.49796425  0.18339070  0.65608981    -0.00800
C541        C  0.52557713  0.21505685  0.69931637    -0.01600
C542        C  0.53999713  0.15883534  0.68989946    -0.01400
C543        C  0.52272223  0.19386959  0.63444007    -0.00800
C544        C  0.54914538  0.22560906  0.67596099    -0.01600
C545        C  0.56372074  0.16921580  0.66704634    -0.01400
C546        C  0.51040547  0.19724557  0.60339246    -0.26800
N547        N  0.47848146  0.18988873  0.60366804     0.19700
C548        C  0.47003911  0.18162058  0.63552088    -0.26800
H549        H  0.44548146  0.17573905  0.64342628     0.21600
C550        C  0.56028962  0.25671849  0.68533374    -0.25800
N551        N  0.54483350  0.26601809  0.71327097     0.18400
C552        C  0.52371311  0.24084531  0.72192560    -0.25800
C553        C  0.59173105  0.15225697  0.67475177    -0.26100
N554        N  0.58533297  0.13148948  0.70032303     0.18900
H555        H  0.61561495  0.15657483  0.66423785     0.21500
C556        C  0.55423901  0.13564417  0.71007995    -0.26100
H557        H  0.54365673  0.12465556  0.73195415     0.21500
H558        H  0.50788266  0.24119894  0.74306652     0.21500
H559        H  0.52367512  0.20577776  0.58194622     0.21600
H560        H  0.57848107  0.27150977  0.67258886     0.21500
Zn561      Zn  0.84639978  0.83274416  0.74615701     1.49700
Zn562      Zn  0.81303234  0.80648720  0.81079697     1.49400
Zn563      Zn  0.86497817  0.76486558  0.77757416     1.49100
Zn564      Zn  0.88801029  0.82936553  0.81082003     1.49500
O565        O  0.85298438  0.80911132  0.78665243    -1.78700
O566        O  0.79852668  0.83903745  0.73682735    -0.69300
O567        O  0.80520865  0.76137323  0.83082728    -0.69200
O568        O  0.85805528  0.75452958  0.73199445    -0.68700
O569        O  0.77512822  0.81863905  0.78205879    -0.69400
O570        O  0.86406574  0.80515475  0.71107551    -0.68900
O571        O  0.84226943  0.73245438  0.80486767    -0.69500
O572        O  0.92446956  0.79807178  0.81866199    -0.68900
O573        O  0.81721226  0.83637224  0.84837214    -0.69700
O574        O  0.91117732  0.75602030  0.78664754    -0.69100
O575        O  0.87106519  0.84422843  0.85354287    -0.69500
O576        O  0.90548793  0.86928923  0.78725141    -0.69400
O577        O  0.87143231  0.87583199  0.74507689    -0.69200
C578        C  0.77332564  0.83138360  0.75348646     0.82600
C579        C  0.81964276  0.73456365  0.82552968     0.83000
C580        C  0.86492026  0.77409179  0.70872463     0.82000
C581        C  0.93072890  0.77052419  0.80589283     0.82400
C582        C  0.84212998  0.84672965  0.86399070     0.83500
C583        C  0.89543881  0.88554571  0.76253068     0.82600
Zn584      Zn  0.90664843  0.16659067  0.81526211     1.49700
Zn585      Zn  0.87141041  0.18178002  0.87610867     1.49400
Zn586      Zn  0.83894927  0.19004667  0.80639198     1.49100
Zn587      Zn  0.85203202  0.11995170  0.83922075     1.49500
O588        O  0.86537109  0.16394003  0.83421119    -1.78700
O589        O  0.92936881  0.20370547  0.83426715    -0.69300
O590        O  0.85600195  0.22653370  0.87587119    -0.69200
O591        O  0.85532865  0.18835589  0.75933448    -0.68700
O592        O  0.91810869  0.18791866  0.88546610    -0.69400
O593        O  0.90526632  0.16976623  0.76715981    -0.68900
O594        O  0.83728944  0.23635331  0.82526446    -0.69500
O595        O  0.81272632  0.11494207  0.81172003    -0.68900
O596        O  0.84737203  0.15695937  0.91024029    -0.69700
O597        O  0.79611793  0.16695351  0.80511773    -0.69100
O598        O  0.83666318  0.10961641  0.88523191    -0.69500
O599        O  0.88846622  0.09167983  0.82449298    -0.69400
O600        O  0.93107263  0.12654093  0.82356082    -0.69200
C601        C  0.93513200  0.20406578  0.86473797     0.82600
C602        C  0.84479965  0.24572605  0.85421743     0.83000
C603        C  0.88232253  0.17821043  0.74831022     0.82000
C604        C  0.79143005  0.13596213  0.80368020     0.82400
C605        C  0.83479797  0.12830716  0.90995450     0.83500
C606        C  0.91874048  0.09799019  0.82068872     0.82600
N607        N  0.92886603  0.99832924  0.77396914     0.03800
C608        C  0.95107816  0.02343849  0.77172923    -0.06900
C609        C  0.97659575  0.01777209  0.74926339    -0.02500
C610        C  0.96910253  0.98435880  0.73876326    -0.03200
C611        C  0.93993339  0.97486956  0.75421700    -0.07000
N612        N  0.04643085  0.22402841  0.87302347     0.03800
C613        C  0.02162783  0.24041604  0.88675496    -0.06900
C614        C  0.03135458  0.25882839  0.91378334    -0.02500
C615        C  0.06479895  0.25367362  0.91657519    -0.03200
C616        C  0.07227494  0.23136572  0.89221475    -0.07000
Zn617      Zn  0.25675985  0.15271902  0.85034826     1.49700
Zn618      Zn  0.26171626  0.21924037  0.80803306     1.49400
Zn619      Zn  0.19801576  0.17916011  0.81645443     1.49100
Zn620      Zn  0.22864906  0.21721466  0.87503356     1.49500
O621        O  0.23665381  0.19261651  0.83740168    -1.78700
O622        O  0.30172242  0.15811654  0.83939124    -0.69300
O623        O  0.24273166  0.21241519  0.76373455    -0.69200
O624        O  0.20204433  0.13536657  0.79576747    -0.68700
O625        O  0.30731447  0.20413527  0.80952761    -0.69400
O626        O  0.24277006  0.11340825  0.82388573    -0.68900
O627        O  0.19073537  0.20761699  0.77885680    -0.69500
O628        O  0.18290093  0.21120306  0.88770920    -0.68900
O629        O  0.26109033  0.26737748  0.82012753    -0.69700
O630        O  0.16109896  0.18211348  0.84659132    -0.69100
O631        O  0.23757662  0.26491023  0.86909792    -0.69500
O632        O  0.25710543  0.20133056  0.90980354    -0.69400
O633        O  0.25944230  0.14778454  0.89868254    -0.69200
C634        C  0.31876598  0.17883783  0.82363085     0.82600
C635        C  0.21248309  0.21062441  0.75709319     0.83000
C636        C  0.22170757  0.11221138  0.80095592     0.82000
C637        C  0.15895332  0.19713683  0.87359662     0.82400
C638        C  0.25094549  0.28111258  0.84598427     0.83500
C639        C  0.26506214  0.17225130  0.91719101     0.82600
N640        N  0.20740655  0.00503752  0.78652656     0.03800
C641        C  0.18269178  0.98350699  0.78037056    -0.06900
C642        C  0.17181630  0.98561177  0.74808600    -0.02500
C643        C  0.18761554  0.01342328  0.73559643    -0.03200
C644        C  0.20870157  0.02503480  0.76014532    -0.07000
Zn645      Zn  0.18532226  0.86303073  0.87141989     1.49700
Zn646      Zn  0.19682294  0.85931755  0.79425707     1.49400
Zn647      Zn  0.25179615  0.84111356  0.84498169     1.49100
Zn648      Zn  0.18999320  0.79575606  0.83546025     1.49500
O649        O  0.20607949  0.83982588  0.83602795    -1.78700
O650        O  0.16736842  0.90398489  0.85548649    -0.69300
O651        O  0.23831882  0.87602792  0.77255222    -0.69200
O652        O  0.26338924  0.87273062  0.88018550    -0.68700
O653        O  0.16855139  0.89687231  0.80135391    -0.69400
O654        O  0.21581763  0.87592520  0.90566168    -0.68900
O655        O  0.27633141  0.85604663  0.80618572    -0.69500
O656        O  0.22123702  0.76599265  0.85722341    -0.68900
O657        O  0.17369892  0.82848209  0.76420375    -0.69700
O658        O  0.26608561  0.79742487  0.86168545    -0.69100
O659        O  0.17656840  0.78044528  0.79050965    -0.69500
O660        O  0.14951022  0.79503993  0.86036248    -0.69400
O661        O  0.14792540  0.84020597  0.89060054    -0.69200
C662        C  0.16127063  0.91323031  0.82654157     0.82600
C663        C  0.26798517  0.87152246  0.78042090     0.83000
C664        C  0.24616345  0.88144409  0.90415240     0.82000
C665        C  0.25062711  0.77044577  0.86617978     0.82400
C666        C  0.16859228  0.79766939  0.76563169     0.83500
C667        C  0.13560124  0.81355059  0.88059272     0.82600
N668        N  0.03529803  0.77498116  0.84223669     0.03800
C669        C  0.05777452  0.76851822  0.86540518    -0.06900
C670        C  0.05712595  0.73580507  0.87458259    -0.02500
C671        C  0.03053794  0.72184842  0.85843820    -0.03200
C672        C  0.01821693  0.74675354  0.83845337     0.06200
N673        N  0.25759459  0.88941343  0.01551253     0.03800
C674        C  0.26560602  0.90254232  0.04454176    -0.06900
C675        C  0.28202303  0.93312538  0.04131795    -0.02500
C676        C  0.28620101  0.93892896  0.00561745    -0.03200
C677        C  0.27031867  0.91066309  0.99262861    -0.07000
Zn678      Zn  0.18305656  0.83576840  0.17148719     1.49700
Zn679      Zn  0.18297177  0.76458415  0.20448153     1.49400
Zn680      Zn  0.24791540  0.79332012  0.17493986     1.49100
Zn681      Zn  0.21680633  0.82725854  0.23975274     1.49500
O682        O  0.20802068  0.80532562  0.19807948    -1.78700
O683        O  0.14844493  0.81074024  0.14688561    -0.69300
O684        O  0.20914440  0.72458099  0.19536104    -0.69200
O685        O  0.25372224  0.82248248  0.13397417    -0.68700
O686        O  0.14455802  0.76260436  0.17341921    -0.69400
O687        O  0.21230384  0.85710867  0.13819482    -0.68900
O688        O  0.25231038  0.74311329  0.16794250    -0.69500
O689        O  0.26635065  0.83438407  0.24490501    -0.68900
O690        O  0.17232454  0.75710697  0.25168399    -0.69700
O691        O  0.28570469  0.80459345  0.20381722    -0.69100
O692        O  0.20555613  0.79405534  0.27521324    -0.69500
O693        O  0.18819381  0.86971574  0.24559863    -0.69400
O694        O  0.16185006  0.87186857  0.19787630    -0.69200
C695        C  0.13551627  0.78235246  0.15083510     0.82600
C696        C  0.23553741  0.71940707  0.18042830     0.83000
C697        C  0.23858641  0.84823684  0.12476559     0.82000
C698        C  0.28997430  0.82126066  0.22969754     0.82400
C699        C  0.18747663  0.76832316  0.27654947     0.83500
C700        C  0.16701337  0.88300855  0.22655117     0.82600
N701        N  0.02957392  0.77592463  0.10364755     0.03800
C702        C  0.00653497  0.76727656  0.08085674    -0.06900
C703        C  0.01717600  0.74570100  0.05585658    -0.02500
C704        C  0.05278937  0.74443332  0.06378766    -0.03200
C705        C  0.05700082  0.76204379  0.09323030    -0.07000
Zn706      Zn  0.85225977  0.78261500  0.11665844     1.49700
Zn707      Zn  0.83403870  0.84760318  0.14273394     1.49400
Zn708      Zn  0.82593084  0.78305699  0.18711445     1.49100
Zn709      Zn  0.89370700  0.81461652  0.17062531     1.49500
O710        O  0.85126284  0.80688097  0.15554184    -1.78700
O711        O  0.81463564  0.79389602  0.08866923    -0.69300
O712        O  0.79358877  0.85422701  0.16625961    -0.69200
O713        O  0.82208996  0.73533521  0.17301833    -0.68700
O714        O  0.81945282  0.84768798  0.09721864    -0.69400
O715        O  0.85173553  0.73579608  0.12739375    -0.68900
O716        O  0.78295645  0.80709975  0.19310316    -0.69500
O717        O  0.90206558  0.78528190  0.20802725    -0.68900
O718        O  0.86263019  0.88535425  0.15293894    -0.69700
O719        O  0.85207425  0.77863990  0.22877025    -0.69100
O720        O  0.89833687  0.86050638  0.18567845    -0.69500
O721        O  0.92455568  0.80602151  0.13530327    -0.69400
O722        O  0.89325340  0.79086782  0.09298009    -0.69200
C723        C  0.80766568  0.82339206  0.08172093     0.82600
C724        C  0.77512142  0.83600624  0.18355269     0.83000
C725        C  0.83732207  0.72057154  0.15042827     0.82000
C726        C  0.88288337  0.77533418  0.23042718     0.82400
C727        C  0.88450846  0.88612093  0.17491547     0.83500
C728        C  0.92078889  0.79748158  0.10567416     0.82600
N729        N  0.80844073  0.84614949  0.97618761     0.03800
C730        C  0.78674577  0.85793873  0.99799835    -0.06900
C731        C  0.77457742  0.88892998  0.98889320    -0.02500
C732        C  0.78897156  0.89461910  0.95774832    -0.03200
C733        C  0.80970404  0.86877201  0.95211891    -0.07000
Zn734      Zn  0.18915273  0.14524479  0.23704654     1.49700
Zn735      Zn  0.15328848  0.16600178  0.17528086     1.49400
Zn736      Zn  0.15252239  0.21256907  0.23313166     1.49100
Zn737      Zn  0.21719462  0.20016717  0.19603584     1.49500
O738        O  0.17814585  0.18122606  0.21133379    -1.78700
O739        O  0.16024318  0.10787923  0.22725232    -0.69300
O740        O  0.12389014  0.20144812  0.16293336    -0.69200
O741        O  0.15203031  0.20133510  0.28224776    -0.68700
O742        O  0.12650971  0.12712573  0.18895478    -0.69400
O743        O  0.18033649  0.15472191  0.28332567    -0.68900
O744        O  0.10796508  0.21069820  0.21414481    -0.69500
O745        O  0.21005342  0.24715011  0.18764270    -0.68900
O746        O  0.18162865  0.15421333  0.13788372    -0.69700
O747        O  0.16567081  0.25827525  0.21676004    -0.69100
O748        O  0.22609627  0.18221370  0.15297562    -0.69500
O749        O  0.25618810  0.18515217  0.22093734    -0.69400
O750        O  0.23529199  0.13483470  0.22956206    -0.69200
C751        C  0.13465829  0.10547426  0.20989130     0.82600
C752        C  0.10419353  0.21346077  0.18325648     0.83000
C753        C  0.16407449  0.17664405  0.29753379     0.82000
C754        C  0.18718200  0.26615108  0.19547266     0.82400
C755        C  0.21075410  0.16394295  0.13312239     0.83500
C756        C  0.25945308  0.15434107  0.22559286     0.82600
N757        N  0.99478384  0.21905779  0.15967666     0.03800
C758        C  0.01913334  0.23749385  0.14627805    -0.06900
C759        C  0.00971674  0.25335421  0.11716847    -0.02500
C760        C  0.97653222  0.24457718  0.11363563    -0.03200
C761        C  0.96923368  0.22290390  0.13933195    -0.07000
N762        N  0.12474620  0.99545015  0.23060851     0.03800
C763        C  0.10233365  0.01887360  0.23803713    -0.06900
C764        C  0.07606287  0.00789374  0.25846143    -0.02500
C765        C  0.08393791  0.97208569  0.26027218    -0.03200
C766        C  0.11413104  0.96743271  0.24460598    -0.07000
N767        N  0.26631881  0.17185746  0.02980704     0.03800
C768        C  0.27018733  0.15413948  0.05749542    -0.06900
C769        C  0.29792205  0.13530024  0.05595854    -0.02500
C770        C  0.31124867  0.14128800  0.02536184    -0.03200
C771        C  0.29094052  0.16348824  0.01005892    -0.07000
N772        N  0.85244549  0.98248244  0.23203722     0.03800
C773        C  0.87444646  0.95848557  0.23624755    -0.06900
C774        C  0.88894544  0.95991499  0.26704072    -0.02500
C775        C  0.87611843  0.98773341  0.28169194    -0.03200
C776        C  0.85383387  0.00060567  0.25940358    -0.07000
Zn777      Zn  0.77439138  0.19619259  0.18620873     1.49700
Zn778      Zn  0.83951467  0.20889760  0.22152767     1.49400
Zn779      Zn  0.79073915  0.15574883  0.24996153     1.49100
Zn780      Zn  0.82869965  0.14188028  0.18655286     1.49500
O781        O  0.80815353  0.17577301  0.21106022    -1.78700
O782        O  0.78037083  0.24489850  0.18262466    -0.69300
O783        O  0.85286219  0.20218614  0.26725828    -0.69200
O784        O  0.74282032  0.15513261  0.24904703    -0.68700
O785        O  0.82430570  0.25475962  0.21330845    -0.69400
O786        O  0.73065712  0.18400848  0.20401685    -0.68900
O787        O  0.80861226  0.17754973  0.28863276    -0.69500
O788        O  0.83676256  0.10153991  0.21372749    -0.68900
O789        O  0.87733019  0.20521602  0.19299323    -0.69700
O790        O  0.80480048  0.10956596  0.25660502    -0.69100
O791        O  0.87032931  0.15824045  0.16623560    -0.69500
O792        O  0.80008013  0.13066620  0.14953408    -0.69400
O793        O  0.77433867  0.17817758  0.14206981    -0.69200
C794        C  0.80115894  0.26460044  0.19514781     0.82600
C795        C  0.83673283  0.19058213  0.29130311     0.83000
C796        C  0.72240208  0.16663881  0.22873046     0.82000
C797        C  0.82436178  0.09204993  0.24076290     0.82400
C798        C  0.88607992  0.18472751  0.17178363     0.83500
C799        C  0.78273845  0.15003761  0.13257457     0.82600
N800        N  0.78561600  0.13327915  0.01656642     0.03800
C801        C  0.78069090  0.11289264  0.99114692    -0.06900
C802        C  0.75912250  0.08738677  0.99948528    -0.02500
C803        C  0.75168064  0.09133636  0.03278833    -0.03200
C804        C  0.76785395  0.12021789  0.04135187    -0.07000
N805        N  0.18913097  0.70953888  0.38743139     0.03800
C806        C  0.17482879  0.73219605  0.36760437    -0.06900
C807        C  0.15414745  0.75199640  0.38454138    -0.02500
C808        C  0.15762210  0.74036248  0.41776959    -0.03200
C809        C  0.17866738  0.71289259  0.41846561    -0.07000
N810        N  0.14918981  0.73532733  0.66653598     0.03800
C811        C  0.13892438  0.73446142  0.63506242    -0.06900
C812        C  0.11555770  0.75850805  0.62973869    -0.02500
C813        C  0.11181629  0.77426455  0.65982981    -0.03200
C814        C  0.13281126  0.75921030  0.68154875    -0.07000
N815        N  0.89597017  0.74022424  0.62424216     0.03800
C816        C  0.88025320  0.71587633  0.60769764    -0.06900
C817        C  0.88408759  0.71927908  0.57432267    -0.02500
C818        C  0.90222365  0.74951156  0.57164364    -0.03200
C819        C  0.91088303  0.76114690  0.60328229    -0.07000
N820        N  0.91156220  0.70909329  0.32741971     0.03800
C821        C  0.92725287  0.72893519  0.30590577    -0.06900
C822        C  0.95553320  0.74112290  0.31945996    -0.02500
C823        C  0.95594053  0.72944989  0.35176767    -0.03200
C824        C  0.92913870  0.70828792  0.35531952    -0.07000
C825        C  0.84056252  0.64759920  0.51013927     0.35400
C826        C  0.81847536  0.60445772  0.46229202     0.35400
C827        C  0.83706769  0.61002356  0.52077424    -0.00800
C828        C  0.80602149  0.65410882  0.49587140    -0.01600
C829        C  0.86090411  0.64581671  0.47824597    -0.01400
C830        C  0.82665784  0.58926790  0.49538943    -0.00800
C831        C  0.79455529  0.63206138  0.47187292    -0.01600
C832        C  0.84987825  0.62384902  0.45408994    -0.01400
C833        C  0.81936680  0.55859705  0.50766660    -0.26800
N834        N  0.82339146  0.55861287  0.54025014     0.19700
C835        C  0.83342623  0.58987739  0.54913971    -0.26800
H836        H  0.83594343  0.59801518  0.57422106     0.21600
C837        C  0.76310279  0.64161508  0.46373236    -0.25800
N838        N  0.75525808  0.66843140  0.48179137     0.18400
C839        C  0.78122984  0.67618561  0.50135406    -0.25800
C840        C  0.86510198  0.63314276  0.42511309    -0.26100
N841        N  0.88559858  0.65900947  0.43109819     0.18900
H842        H  0.85974728  0.62344941  0.40101088     0.21500
C843        C  0.88279647  0.66731267  0.46309081    -0.26100
H844        H  0.89381396  0.68903606  0.47390753     0.21500
H845        H  0.78187043  0.69610507  0.51876734     0.21500
H846        H  0.80895097  0.53818952  0.49407854     0.21600
H847        H  0.74703114  0.62969735  0.44621966     0.21500
C848        C  0.01067114  0.81974671  0.28491272     0.35400
C849        C  0.04724238  0.87512452  0.27205463     0.35400
C850        C  0.04407066  0.82132153  0.30242439    -0.00800
C851        C  0.01967753  0.82455488  0.24855368    -0.01600
C852        C  0.99445795  0.85240646  0.29367448    -0.01400
C853        C  0.06341629  0.84929016  0.29669216    -0.00800
C854        C  0.03825776  0.85281302  0.24084579    -0.01600
C855        C  0.01355825  0.88018457  0.28739536    -0.01400
C856        C  0.09270056  0.84297568  0.31451137    -0.26800
N857        N  0.09089902  0.81265447  0.33029833     0.19700
C858        C  0.06119522  0.79965324  0.32241026    -0.26800
H859        H  0.05268530  0.77544528  0.32985601     0.21600
C860        C  0.04315807  0.85040698  0.20635914    -0.25800
N861        N  0.02814366  0.82229155  0.19405227     0.18400
C862        C  0.01389097  0.80678027  0.22010316    -0.25800
C863        C  0.99307480  0.90692236  0.28625680    -0.26100
N864        N  0.96207652  0.89670675  0.29106855     0.18900
H865        H  0.99977348  0.93172668  0.27876729     0.21500
C866        C  0.96225117  0.86329881  0.29455666    -0.26100
H867        H  0.94059473  0.84774624  0.29471761     0.21500
H868        H  0.00041493  0.78372409  0.21867797     0.21500
H869        H  0.11387527  0.85916036  0.31523242     0.21600
H870        H  0.05713219  0.86775381  0.19159504     0.21500
C871        C  0.01284231  0.90107463  0.69984928     0.35400
C872        C  0.05454418  0.85323182  0.68225180     0.35400
C873        C  0.04759154  0.91289940  0.68944744    -0.00800
C874        C  0.02102837  0.87539388  0.72723163    -0.01600
C875        C  0.00013537  0.87793461  0.67063111    -0.01400
C876        C  0.06933179  0.88831972  0.68067023    -0.00800
C877        C  0.04226156  0.85102927  0.71737732    -0.01600
C878        C  0.02258400  0.85389114  0.66193318    -0.01400
C879        C  0.10035284  0.89973199  0.69052687    -0.26800
N880        N  0.09849743  0.93049110  0.70316286     0.19700
C881        C  0.06657265  0.93824649  0.70317394    -0.26800
H882        H  0.05718317  0.95923987  0.71598837     0.21600
C883        C  0.04816776  0.83051478  0.74349238    -0.25800
N884        N  0.03118678  0.84109399  0.76953095     0.18400
C885        C  0.01436120  0.86848169  0.76021829    -0.25800
C886        C  0.00582374  0.82861203  0.64554529    -0.26100
N887        N  0.97360142  0.83514405  0.64269292     0.18900
H888        H  0.01598404  0.80525797  0.63904419     0.21500
C889        C  0.96959659  0.86437351  0.65936748    -0.26100
H890        H  0.94601117  0.87438891  0.66490355     0.21500
H891        H  0.99840362  0.88208262  0.77598458     0.21500
H892        H  0.12205444  0.88497973  0.69169552     0.21600
H893        H  0.06365743  0.80920036  0.74353919     0.21500
C894        C  0.21577981  0.64667548  0.49299547     0.35400
C895        C  0.23688422  0.60821326  0.54585124     0.35400
C896        C  0.21859777  0.60851462  0.48685653    -0.00800
C897        C  0.25027736  0.65501871  0.50709198    -0.01600
C898        C  0.19499462  0.64743266  0.52457388    -0.01400
C899        C  0.22871843  0.59028849  0.51436478    -0.00800
C900        C  0.26104824  0.63538476  0.53358984    -0.01600
C901        C  0.20558192  0.62789607  0.55152745    -0.01400
C902        C  0.23285794  0.55824797  0.50589369    -0.26800
N903        N  0.22663163  0.55497310  0.47380415     0.19700
C904        C  0.21823594  0.58531537  0.46134076    -0.26800
H905        H  0.21389165  0.59054900  0.43563415     0.21600
C906        C  0.29167490  0.64730433  0.54248009    -0.25800
N907        N  0.29990925  0.67316037  0.52249002     0.18400
C908        C  0.27489763  0.67808405  0.50093159    -0.25800
C909        C  0.19418736  0.64312616  0.57939559    -0.26100
N910        N  0.17632344  0.66953636  0.57047672     0.18900
H911        H  0.20115358  0.63727770  0.60439822     0.21500
C912        C  0.17725795  0.67283645  0.53748698    -0.26100
H913        H  0.16868571  0.69416066  0.52408800     0.21500
H914        H  0.27456069  0.69710529  0.48217810     0.21500
H915        H  0.24201569  0.53884426  0.52165210     0.21600
H916        H  0.30672655  0.63800873  0.56225819     0.21500
N917        N  0.38194012  0.24934006  0.50898308     0.03800
C918        C  0.40138906  0.24007857  0.53387025    -0.06900
C919        C  0.42559692  0.21888293  0.52400746    -0.02500
C920        C  0.42228885  0.21671062  0.48936474    -0.03200
C921        C  0.39463769  0.23522502  0.48216180    -0.07000
N922        N  0.28263807  0.45905711  0.38357355     0.03800
C923        C  0.28357122  0.48113423  0.40783083    -0.06900
C924        C  0.26261583  0.47242801  0.43321249    -0.02500
C925        C  0.25098857  0.44041252  0.42602192    -0.03200
C926        C  0.26245467  0.43465027  0.39440218    -0.07000
N927        N  0.49348188  0.34834777  0.30521467     0.03800
C928        C  0.51885302  0.36526158  0.29243596    -0.06900
C929        C  0.50826185  0.39129170  0.27255565    -0.02500
C930        C  0.47384454  0.39172861  0.27461188    -0.03200
C931        C  0.46683146  0.36508116  0.29540453    -0.07000
Zn932      Zn  0.33232497  0.28567469  0.28026817     1.49700
Zn933      Zn  0.31946788  0.23702592  0.33647306     1.49400
Zn934      Zn  0.32564963  0.30545883  0.35556367     1.49100
Zn935      Zn  0.26478699  0.28758740  0.31454416     1.49500
O936        O  0.31007894  0.27925921  0.32039207    -1.78700
O937        O  0.35147718  0.24415001  0.26284543    -0.69300
O938        O  0.35309204  0.23691252  0.37120105    -0.69200
O939        O  0.36625693  0.32653450  0.34215894    -0.68700
O940        O  0.33651869  0.20935578  0.30269880    -0.69400
O941        O  0.36841393  0.31585190  0.28856259    -0.68900
O942        O  0.33516264  0.28093543  0.39626200    -0.69500
O943        O  0.25262398  0.33023868  0.33484294    -0.68900
O944        O  0.27986675  0.21907067  0.35656862    -0.69700
O945        O  0.29646631  0.34067627  0.36535073    -0.69100
O946        O  0.24078856  0.25271222  0.33854693    -0.69500
O947        O  0.25307545  0.29397553  0.26735128    -0.69400
O948        O  0.30270125  0.30593897  0.24795824    -0.69200
C949        C  0.35051705  0.21561340  0.27574201     0.82600
C950        C  0.35160029  0.25493154  0.39616263     0.83000
C951        C  0.37949814  0.32917202  0.31431598     0.82000
C952        C  0.26859587  0.34809563  0.35472618     0.82400
C953        C  0.25061052  0.22854017  0.35571791     0.83500
C954        C  0.27187946  0.30603207  0.24544662     0.82600
Zn955      Zn  0.68079451  0.34891085  0.33313520     1.49700
Zn956      Zn  0.64558795  0.28854182  0.36109035     1.49400
Zn957      Zn  0.71315782  0.27759982  0.32479641     1.49100
Zn958      Zn  0.71399443  0.31210012  0.39330334     1.49500
O959        O  0.68877255  0.30668742  0.35319608    -1.78700
O960        O  0.63418675  0.35786427  0.32162786    -0.69300
O961        O  0.63930997  0.24766820  0.33714241    -0.69200
O962        O  0.72595758  0.30202038  0.28432622    -0.68700
O963        O  0.60820505  0.31630476  0.34614195    -0.69400
O964        O  0.70359714  0.35098446  0.29171154    -0.68900
O965        O  0.68640832  0.23834195  0.31243594    -0.69500
O966        O  0.75668355  0.28822394  0.39208798    -0.68900
O967        O  0.64188286  0.27372898  0.40654110    -0.69700
O968        O  0.75432355  0.26092010  0.34528202    -0.69100
O969        O  0.68931472  0.28910057  0.42939284    -0.69500
O970        O  0.72557754  0.36036000  0.40071857    -0.69400
O971        O  0.70079485  0.38505630  0.35859433    -0.69200
C972        C  0.60810471  0.34225609  0.32859554     0.82600
C973        C  0.65725173  0.23031021  0.31946681     0.83000
C974        C  0.72035412  0.33134393  0.27527307     0.82000
C975        C  0.76862992  0.26811549  0.37195930     0.82400
C976        C  0.66191645  0.27392415  0.43021593     0.83500
C977        C  0.71915585  0.38593820  0.38367922     0.82600
Zn978      Zn  0.32927718  0.67032472  0.32436475     1.49700
Zn979      Zn  0.33573894  0.63697456  0.39259621     1.49400
Zn980      Zn  0.36093140  0.59948740  0.33098736     1.49100
Zn981      Zn  0.39800127  0.66382731  0.35326479     1.49500
O982        O  0.35621949  0.64209603  0.35050485    -1.78700
O983        O  0.28852007  0.68101086  0.34489356    -0.69300
O984        O  0.33135341  0.58997713  0.40644719    -0.69200
O985        O  0.33075505  0.59598047  0.29321389    -0.68700
O986        O  0.28985436  0.65277035  0.39165603    -0.69400
O987        O  0.31468798  0.64766544  0.28639728    -0.68900
O988        O  0.34719233  0.56358232  0.36174447    -0.69500
O989        O  0.43254078  0.63761377  0.33350692    -0.68900
O990        O  0.36079778  0.66412911  0.42428767    -0.69700
O991        O  0.40619940  0.59368880  0.31367829    -0.69100
O992        O  0.40752696  0.67642298  0.39856101    -0.69500
O993        O  0.39958968  0.70637059  0.32872624    -0.69400
O994        O  0.34942660  0.71149655  0.30934511    -0.69200
C995        C  0.27519416  0.67059700  0.37082318     0.82600
C996        C  0.33494902  0.56377785  0.39029114     0.83000
C997        C  0.31497752  0.61798973  0.27806394     0.82000
C998        C  0.43175025  0.61150688  0.31679282     0.82400
C999        C  0.38884439  0.67783512  0.42313117     0.83500
C1000       C  0.37822552  0.72215278  0.31290304     0.82600
Zn1001     Zn  0.34350326  0.32785805  0.65323129     1.49700
Zn1002     Zn  0.40926499  0.29998444  0.68868807     1.49400
Zn1003     Zn  0.37546086  0.36545962  0.71011424     1.49100
Zn1004     Zn  0.34192032  0.29285721  0.72382667     1.49500
O1005       O  0.36741632  0.32132288  0.69406649    -1.78700
O1006       O  0.36796912  0.30604535  0.61834649    -0.69300
O1007       O  0.44652205  0.32909851  0.70280640    -0.69200
O1008       O  0.35381351  0.40183552  0.68416932    -0.68700
O1009       O  0.41249145  0.28562773  0.64256864    -0.69400
O1010       O  0.33211438  0.37535211  0.64192959    -0.68900
O1011       O  0.42258400  0.37513043  0.71824754    -0.69500
O1012       O  0.33287432  0.31846148  0.76402090    -0.68900
O1013       O  0.41419445  0.25865384  0.71583756    -0.69700
O1014       O  0.35643260  0.36729376  0.75337636    -0.69100
O1015       O  0.36559815  0.25178095  0.73860422    -0.69500
O1016       O  0.29912597  0.27886206  0.70309930    -0.69400
O1017       O  0.30090714  0.30401808  0.65442194    -0.69200
C1018       C  0.39371640  0.28914714  0.61796951     0.82600
C1019       C  0.44765834  0.35758162  0.71533653     0.83000
C1020       C  0.33698066  0.40169819  0.65793056     0.82000
C1021       C  0.34060940  0.34775008  0.77182533     0.82400
C1022       C  0.39454993  0.24230823  0.73383993     0.83500
C1023       C  0.28663291  0.28557930  0.67526079     0.82600
N1024       N  0.54067628  0.62423350  0.27719306     0.03800
C1025       C  0.51625800  0.60379557  0.26833806    -0.06900
C1026       C  0.52716406  0.57987319  0.24732731    -0.02500
C1027       C  0.56098647  0.58432376  0.24487665    -0.03200
C1028       C  0.56751482  0.61256807  0.26275455    -0.07000
N1029       N  0.66847285  0.71620436  0.48039313     0.03800
C1030       C  0.64516095  0.71558897  0.50351600    -0.06900
C1031       C  0.61911052  0.73554958  0.49438473    -0.02500
C1032       C  0.62601906  0.74719758  0.46256182    -0.03200
C1033       C  0.65724408  0.73634367  0.45657335    -0.07000
N1034       N  0.74029204  0.50199011  0.37855726     0.03800
C1035       C  0.75822105  0.47754866  0.39105813    -0.06900
C1036       C  0.78448905  0.48990594  0.40901785    -0.02500
C1037       C  0.78102734  0.52453205  0.40934337    -0.03200
C1038       C  0.75326217  0.53000598  0.39066547    -0.07000
Zn1039     Zn  0.75792818  0.71338112  0.27741601     1.49700
Zn1040     Zn  0.75038396  0.68825842  0.34955327     1.49400
Zn1041     Zn  0.68965696  0.71005075  0.31097088     1.49100
Zn1042     Zn  0.72285828  0.64734844  0.29312012     1.49500
O1043       O  0.73038417  0.69031098  0.30757779    -1.78700
O1044       O  0.80232905  0.71872086  0.29673816    -0.69300
O1045       O  0.73392265  0.72363755  0.37717724    -0.69200
O1046       O  0.68769890  0.74865582  0.28312395    -0.68700
O1047       O  0.79772913  0.69176142  0.34443850    -0.69400
O1048       O  0.73790208  0.75599249  0.26333286    -0.68900
O1049       O  0.68428730  0.72661603  0.35483202    -0.69500
O1050       O  0.67981112  0.64129871  0.27324701    -0.68900
O1051       O  0.74138455  0.64531089  0.37188875    -0.69700
O1052       O  0.65319412  0.68065693  0.29880356    -0.69100
O1053       O  0.72495652  0.61593253  0.32902781    -0.69500
O1054       O  0.75540132  0.63572727  0.26172353    -0.69400
O1055       O  0.76654713  0.68482510  0.23926447    -0.69200
C1056       C  0.81467844  0.70529696  0.32208190     0.82600
C1057       C  0.70465362  0.73312415  0.37731847     0.83000
C1058       C  0.70865089  0.76513783  0.26710452     0.82000
C1059       C  0.65373581  0.65513310  0.28130684     0.82400
C1060       C  0.73233351  0.61840960  0.35899232     0.83500
C1061       C  0.76842606  0.65366011  0.23986181     0.82600
N1062       N  0.65861656  0.25311519  0.53930351     0.03800
C1063       C  0.64059026  0.24996568  0.56691560    -0.06900
C1064       C  0.61506243  0.22665622  0.56416220    -0.02500
C1065       C  0.61647650  0.21706654  0.53044038    -0.03200
C1066       C  0.64308893  0.23434596  0.51718161    -0.07000
N1067       N  0.76315641  0.46637622  0.64210522     0.03800
C1068       C  0.76781330  0.49111488  0.62045303    -0.06900
C1069       C  0.78416126  0.48108098  0.59236883    -0.02500
C1070       C  0.78694703  0.44622512  0.59498919    -0.03200
C1071       C  0.77487620  0.43942035  0.62669948    -0.07000
N1072       N  0.55720765  0.35636511  0.75768443     0.03800
C1073       C  0.53368107  0.37897170  0.75964060    -0.06900
C1074       C  0.54430162  0.40731697  0.77609743    -0.02500
C1075       C  0.57833241  0.40338944  0.78207471    -0.03200
C1076       C  0.58367655  0.37094134  0.77199454    -0.07000
Zn1077     Zn  0.70372995  0.32193293  0.70176816     1.49700
Zn1078     Zn  0.72015310  0.24942482  0.68964307     1.49400
Zn1079     Zn  0.77253271  0.29686944  0.71465743     1.49100
Zn1080     Zn  0.71559612  0.27474444  0.76082947     1.49500
O1081       O  0.72773514  0.28546202  0.71691885    -1.78700
O1082       O  0.67356349  0.31023542  0.66532528    -0.69300
O1083       O  0.76076692  0.23087383  0.67337410    -0.69200
O1084       O  0.78041213  0.33172207  0.68108694    -0.68700
O1085       O  0.69290315  0.26114178  0.65298068    -0.69400
O1086       O  0.73237899  0.35607882  0.68392373    -0.68900
O1087       O  0.79827554  0.25833918  0.70236079    -0.69500
O1088       O  0.74886727  0.29383871  0.79109450    -0.68900
O1089       O  0.69758264  0.21443234  0.71332212    -0.69700
O1090       O  0.78586830  0.31594795  0.75707352    -0.69100
O1091       O  0.70605385  0.22650503  0.76594948    -0.69500
O1092       O  0.67517812  0.29798792  0.77222463    -0.69400
O1093       O  0.67796339  0.33994140  0.73673538    -0.69200
C1094       C  0.67446516  0.28510223  0.64731239     0.82600
C1095       C  0.78990593  0.23577710  0.68257950     0.83000
C1096       C  0.76159255  0.35525785  0.67433515     0.82000
C1097       C  0.77359765  0.31224231  0.78538111     0.82400
C1098       C  0.69634313  0.20712269  0.74347273     0.83500
C1099       C  0.66570374  0.32561247  0.76151555     0.82600
N1100       N  0.30441276  0.51684618  0.65371538     0.03800
C1101       C  0.29598417  0.49055909  0.63550184    -0.06900
C1102       C  0.27422543  0.49968244  0.61047097    -0.02500
C1103       C  0.27085190  0.53441190  0.61217965    -0.03200
C1104       C  0.28905799  0.54272626  0.63986656    -0.07000
N1105       N  0.51786482  0.63963261  0.73403355     0.03800
C1106       C  0.54345245  0.62192292  0.74424412    -0.06900
C1107       C  0.53395807  0.59795870  0.76710016    -0.02500
C1108       C  0.49927064  0.60037378  0.76935799    -0.03200
C1109       C  0.49141647  0.62704667  0.74926382    -0.07000
N1110       N  0.38452089  0.72713504  0.52646036     0.03800
C1111       C  0.40530429  0.73319096  0.50175967    -0.06900
C1112       C  0.43154312  0.75273083  0.51169774    -0.02500
C1113       C  0.42757961  0.75762989  0.54532386    -0.03200
C1114       C  0.39814169  0.74205662  0.55257394    -0.07000
Zn1115     Zn  0.29198978  0.67899464  0.73334014     1.49700
Zn1116     Zn  0.35063654  0.67918193  0.69013103     1.49400
Zn1117     Zn  0.30673244  0.73631552  0.68527892     1.49100
Zn1118     Zn  0.35760604  0.72402102  0.74255350     1.49500
O1119       O  0.32490957  0.70595136  0.71497885    -1.78700
O1120       O  0.29201982  0.63531875  0.71139249    -0.69300
O1121       O  0.37206519  0.70667950  0.65781401    -0.69200
O1122       O  0.25878480  0.73041095  0.68161058    -0.68700
O1123       O  0.32336625  0.64717579  0.66827398    -0.69400
O1124       O  0.24692903  0.69593543  0.72286439    -0.68900
O1125       O  0.32672921  0.73174767  0.64207950    -0.69500
O1126       O  0.36160979  0.77224973  0.73218988    -0.68900
O1127       O  0.38402928  0.65588485  0.71554404    -0.69700
O1128       O  0.32012974  0.78139159  0.69757570    -0.69100
O1129       O  0.40134507  0.70131987  0.73981304    -0.69500
O1130       O  0.34333841  0.71348697  0.78754314    -0.69400
O1131       O  0.30283627  0.67613238  0.78080399    -0.69200
C1132       C  0.30282214  0.62898265  0.68301463     0.82600
C1133       C  0.35617246  0.72409666  0.63777132     0.83000
C1134       C  0.23834279  0.71413250  0.69881664     0.82000
C1135       C  0.34454719  0.79127881  0.71422444     0.82400
C1136       C  0.40539231  0.67151754  0.73178462     0.83500
C1137       C  0.32332007  0.69190168  0.79854082     0.82600
Zn1138     Zn  0.72483972  0.69556028  0.63785259     1.49700
Zn1139     Zn  0.69342330  0.68081231  0.70773784     1.49400
Zn1140     Zn  0.68028390  0.63197493  0.64825355     1.49100
Zn1141     Zn  0.75036982  0.63829159  0.68238643     1.49500
O1142       O  0.71190787  0.66160471  0.66906881    -1.78700
O1143       O  0.71194766  0.74000919  0.65278846    -0.69300
O1144       O  0.64958250  0.66130433  0.71658890    -0.69200
O1145       O  0.66206502  0.65307525  0.60695795    -0.68700
O1146       O  0.68673829  0.72857852  0.69992182    -0.69400
O1147       O  0.69978443  0.69168213  0.59657236    -0.68900
O1148       O  0.64202941  0.62293887  0.67855671    -0.69500
O1149       O  0.74990507  0.59438707  0.66293294    -0.68900
O1150       O  0.71985629  0.67175278  0.74870989    -0.69700
O1151       O  0.70275334  0.58977790  0.63581673    -0.69100
O1152       O  0.75441036  0.63437577  0.73087216    -0.69500
O1153       O  0.79119053  0.65895731  0.66513391    -0.69400
O1154       O  0.77259436  0.69497825  0.62844053    -0.69200
C1155       C  0.69494108  0.74846592  0.67708594     0.82600
C1156       C  0.63278491  0.63821959  0.70392330     0.83000
C1157       C  0.67390780  0.67604602  0.58901269     0.82000
C1158       C  0.73057880  0.57887251  0.64413432     0.82400
C1159       C  0.74180938  0.65056024  0.75389073     0.83500
C1160       C  0.79582815  0.67982829  0.64227790     0.82600
N1161       N  0.97519654  0.30032462  0.52049927    -0.31200
N1162       N  0.01490309  0.25866105  0.48008427    -0.51700
N1163       N  0.05488818  0.24245725  0.53497271    -0.31200
N1164       N  0.01619448  0.28068480  0.57597309    -0.51700
C1165       C  0.95662091  0.29848955  0.49301175     0.32400
C1166       C  0.95443416  0.30393571  0.54586391     0.32400
C1167       C  0.06200639  0.21803528  0.51427670     0.32400
C1168       C  0.06499990  0.23289224  0.56492788     0.32400
C1169       C  0.99860460  0.27563164  0.45700876     0.41000
C1170       C  0.03906014  0.24334003  0.46450125     0.41000
C1171       C  0.99319531  0.29755540  0.59126869     0.41000
C1172       C  0.03982668  0.27527259  0.59805504     0.41000
C1173       C  0.92455664  0.30503403  0.50074454    -0.16500
C1174       C  0.92342484  0.30846126  0.53414034    -0.16500
C1175       C  0.07624432  0.19231082  0.53143954    -0.16500
C1176       C  0.07855561  0.20197746  0.56356345    -0.16500
C1177       C  0.01251128  0.27128389  0.42649247    -0.17500
C1178       C  0.03845429  0.25088640  0.43125933    -0.17500
C1179       C  0.00201863  0.30293104  0.62360472    -0.17500
C1180       C  0.03246433  0.28972752  0.62768375    -0.17500
C1181       C  0.96719106  0.28745253  0.46209697    -0.12900
C1182       C  0.96148653  0.29852028  0.57928083    -0.12900
C1183       C  0.06443820  0.25268416  0.59288120    -0.12900
C1184       C  0.05968051  0.22071486  0.47994411    -0.12900
H1185       H  0.90390266  0.30580650  0.48438144     0.20000
H1186       H  0.90246978  0.31333015  0.54887057     0.20000
H1187       H  0.08510212  0.16951643  0.52163213     0.20000
H1188       H  0.08921224  0.18809927  0.58359365     0.20000
H1189       H  0.00367997  0.28041831  0.40311650     0.18300
H1190       H  0.05424128  0.24187320  0.41228476     0.18300
H1191       H  0.98714481  0.31337787  0.64258665     0.18300
H1192       H  0.04581645  0.28797186  0.65056270     0.18300
H1193       H  0.00027183  0.29751404  0.52187688     0.31600
H1194       H  0.04849565  0.26630944  0.52836334     0.31600
N1195       N  0.04574435  0.80186487  0.43705387    -0.31200
N1196       N  0.07163420  0.80386013  0.50437675    -0.51700
N1197       N  0.01043105  0.78989426  0.53029278    -0.31200
N1198       N  0.98353833  0.79733606  0.46485895    -0.51700
C1199       C  0.07500388  0.78735168  0.43631551     0.32400
C1200       C  0.02726072  0.78732388  0.41359317     0.32400
C1201       C  0.02988163  0.78119161  0.55562988     0.32400
C1202       C  0.98392472  0.76994342  0.53143602     0.32400
C1203       C  0.09861896  0.80978642  0.48683600     0.41000
C1204       C  0.07979588  0.80823349  0.53597889     0.41000
C1205       C  0.97429920  0.80313663  0.43376707     0.41000
C1206       C  0.95627816  0.79125934  0.48180995     0.41000
C1207       C  0.07460654  0.76307860  0.41266259    -0.16500
C1208       C  0.04491376  0.76370044  0.39770544    -0.16500
C1209       C  0.01519684  0.75621744  0.57384931    -0.16500
C1210       C  0.98628958  0.74876242  0.55828982    -0.16500
C1211       C  0.12385100  0.82034588  0.50705291    -0.17500
C1212       C  0.11170232  0.81970868  0.53849105    -0.17500
C1213       C  0.94058408  0.80484084  0.43174732    -0.17500
C1214       C  0.92906637  0.79683739  0.46241695    -0.17500
C1215       C  0.10211623  0.79656319  0.45571073    -0.12900
C1216       C  0.99410546  0.79327210  0.40806120    -0.12900
C1217       C  0.95663599  0.77222885  0.51039026    -0.12900
C1218       C  0.06124418  0.79427120  0.56150819    -0.12900
H1219       H  0.09279214  0.74522877  0.40736601     0.20000
H1220       H  0.03694633  0.74704965  0.37869753     0.20000
H1221       H  0.02481996  0.74386979  0.59535832     0.20000
H1222       H  0.96899792  0.72991228  0.56601662     0.20000
H1223       H  0.14901523  0.82484627  0.50028233     0.18300
H1224       H  0.12567057  0.82378635  0.56070364     0.18300
H1225       H  0.92588581  0.80642296  0.40968397     0.18300
H1226       H  0.90384017  0.79178251  0.46859177     0.18300
H1227       H  0.03930402  0.82169725  0.45162000     0.31600
H1228       H  0.01390979  0.81016795  0.51478318     0.31600
N1229       N  0.71512688  0.50086539  0.05903383    -0.31200
N1230       N  0.72334214  0.44286194  0.02061043    -0.51700
N1231       N  0.74032698  0.48591614  0.96632774    -0.31200
N1232       N  0.72725847  0.54410741  0.00444435    -0.51700
C1233       C  0.70282134  0.47783098  0.07970506     0.32400
C1234       C  0.70827123  0.53033259  0.07187270     0.32400
C1235       C  0.75216917  0.45711087  0.95550165     0.32400
C1236       C  0.75229313  0.50980955  0.94618404     0.32400
C1237       C  0.71742636  0.42779634  0.04948488     0.41000
C1238       C  0.73236504  0.41925362  0.99987119     0.41000
C1239       C  0.72734305  0.56705773  0.02790479     0.41000
C1240       C  0.73673153  0.55975061  0.97691918     0.41000
C1241       C  0.68715034  0.49279554  0.10539014    -0.16500
C1242       C  0.69091663  0.52619519  0.10061775    -0.16500
C1243       C  0.77169989  0.46308605  0.92834862    -0.16500
C1244       C  0.77145621  0.49610374  0.92227390    -0.16500
C1245       C  0.72148107  0.39414778  0.04687081    -0.17500
C1246       C  0.73075088  0.38866338  0.01516154    -0.17500
C1247       C  0.73558538  0.59770584  0.01525404    -0.17500
C1248       C  0.74084827  0.59323095  0.98247834    -0.17500
C1249       C  0.70998308  0.44427051  0.07856345    -0.12900
C1250       C  0.72219063  0.56007445  0.06102484    -0.12900
C1251       C  0.74715600  0.54384853  0.94865214    -0.12900
C1252       C  0.74590042  0.42539302  0.96889221    -0.12900
H1253       H  0.67500425  0.48067088  0.12572463     0.20000
H1254       H  0.68250112  0.54529489  0.11662513     0.20000
H1255       H  0.78576987  0.44580060  0.91470856     0.20000
H1256       H  0.78488466  0.50862966  0.90296315     0.20000
H1257       H  0.71871972  0.37565026  0.06597634     0.18300
H1258       H  0.73732146  0.36516004  0.00510747     0.18300
H1259       H  0.73822577  0.62056550  0.02845769     0.18300
H1260       H  0.74946771  0.61196512  0.96542768     0.18300
H1261       H  0.73243943  0.49699024  0.04098523     0.31600
H1262       H  0.72282067  0.48888909  0.98431201     0.31600
N1263       N  0.52811277  0.91491785  0.82500328    -0.31200
N1264       N  0.58538972  0.95621372  0.81580032    -0.51700
N1265       N  0.54961412  0.01679428  0.82192927    -0.31200
N1266       N  0.49251808  0.97732927  0.82826724    -0.51700
C1267       C  0.54840928  0.89368340  0.81064218     0.32400
C1268       C  0.49757551  0.90507599  0.81749561     0.32400
C1269       C  0.57836963  0.02843602  0.81063104     0.32400
C1270       C  0.52707200  0.04003609  0.81607898     0.32400
C1271       C  0.59798619  0.92620821  0.82109450     0.41000
C1272       C  0.60979871  0.97806923  0.82119864     0.41000
C1273       C  0.47033673  0.95446728  0.83777343     0.41000
C1274       C  0.48025765  0.00688582  0.83589801     0.41000
C1275       C  0.53060811  0.86850485  0.79604012    -0.16500
C1276       C  0.49829044  0.87582627  0.80023730    -0.16500
C1277       C  0.57456451  0.06022111  0.79871786    -0.16500
C1278       C  0.54215604  0.06762834  0.80229287    -0.16500
C1279       C  0.63024724  0.92903913  0.83067648    -0.17500
C1280       C  0.63783844  0.96206562  0.83059188    -0.17500
C1281       C  0.44405034  0.96941358  0.85202342    -0.17500
C1282       C  0.45025355  0.00273856  0.85085082    -0.17500
C1283       C  0.58249145  0.89715760  0.81054244    -0.12900
C1284       C  0.46936782  0.92261165  0.82499391    -0.12900
C1285       C  0.49388629  0.03709239  0.82496475    -0.12900
C1286       C  0.60804578  0.01153929  0.81296741    -0.12900
H1287       H  0.53982192  0.84753931  0.78307402     0.20000
H1288       H  0.47772656  0.86164350  0.79100903     0.20000
H1289       H  0.59322234  0.07670763  0.78915754     0.20000
H1290       H  0.53140957  0.09097211  0.79604678     0.20000
H1291       H  0.64642032  0.90925677  0.83695690     0.18300
H1292       H  0.66117988  0.97321352  0.83653685     0.18300
H1293       H  0.42223689  0.95724261  0.86097245     0.18300
H1294       H  0.43414864  0.02171821  0.85902037     0.18300
H1295       H  0.53463533  0.93486242  0.83963444     0.31600
H1296       H  0.54656462  0.99552632  0.83601130     0.31600
N1297       N  0.33061949  0.47996701  0.06912174    -0.31200
N1298       N  0.34350702  0.54100667  0.03188895    -0.51700
N1299       N  0.30588787  0.51763138  0.97895959    -0.31200
N1300       N  0.29540602  0.45550721  0.01326508    -0.51700
C1301       C  0.32875817  0.50377604  0.09183330     0.32400
C1302       C  0.31260872  0.45428997  0.08070224     0.32400
C1303       C  0.30819628  0.54968358  0.97011458     0.32400
C1304       C  0.28276467  0.50369865  0.95985011     0.32400
C1305       C  0.35665113  0.54829643  0.06103865     0.41000
C1306       C  0.34866350  0.56716527  0.01226978     0.41000
C1307       C  0.29999064  0.42700441  0.02958624     0.41000
C1308       C  0.28484371  0.44721082  0.98325750     0.41000
C1309       C  0.30974514  0.49286466  0.11783310    -0.16500
C1310       C  0.29979550  0.46147299  0.11095815    -0.16500
C1311       C  0.28709214  0.55555285  0.94395025    -0.16500
C1312       C  0.27082215  0.52662032  0.93779535    -0.16500
C1313       C  0.37280155  0.57849279  0.05936412    -0.17500
C1314       C  0.36796857  0.59043801  0.02816029    -0.17500
C1315       C  0.29268501  0.40034373  0.01002129    -0.17500
C1316       C  0.28324565  0.41320567  0.98037878    -0.17500
C1317       C  0.34264856  0.53559771  0.08950971    -0.12900
C1318       C  0.30505267  0.42567355  0.06333720    -0.12900
C1319       C  0.27494035  0.47000294  0.95926541    -0.12900
C1320       C  0.32949307  0.57334239  0.98444685    -0.12900
H1321       H  0.30255741  0.50669802  0.13898869     0.20000
H1322       H  0.28285294  0.44676166  0.12530545     0.20000
H1323       H  0.28389823  0.57789058  0.92986873     0.20000
H1324       H  0.25296489  0.52263867  0.91855516     0.20000
H1325       H  0.38305411  0.59227090  0.07963758     0.18300
H1326       H  0.37434644  0.61501720  0.01972112     0.18300
H1327       H  0.29299901  0.37454829  0.01680235     0.18300
H1328       H  0.27578743  0.39905071  0.95938054     0.18300
H1329       H  0.34369374  0.48076424  0.04722570     0.31600
H1330       H  0.32165779  0.50484653  0.99418809     0.31600
N1331       N  0.54317336  0.99121910  0.24746783    -0.31200
N1332       N  0.48086601  0.02179147  0.25285019    -0.51700
N1333       N  0.45966729  0.97582811  0.30454601    -0.31200
N1334       N  0.51977823  0.94126543  0.29005275    -0.51700
C1335       C  0.54424542  0.01477838  0.22432116     0.32400
C1336       C  0.56094377  0.96609682  0.23652694     0.32400
C1337       C  0.43065844  0.98801652  0.29520077     0.32400
C1338       C  0.45308929  0.94668886  0.31923008     0.32400
C1339       C  0.49810672  0.04736835  0.24024120     0.41000
C1340       C  0.45159592  0.03389312  0.26028943     0.41000
C1341       C  0.54954878  0.92970421  0.28371556     0.41000
C1342       C  0.50854787  0.92465028  0.31640838     0.41000
C1343       C  0.56381890  0.00571295  0.19862472    -0.16500
C1344       C  0.57364806  0.97418140  0.20583008    -0.16500
C1345       C  0.40541120  0.96833672  0.30709289    -0.16500
C1346       C  0.41962132  0.94220527  0.32249855    -0.16500
C1347       C  0.47984898  0.07553880  0.23898848    -0.17500
C1348       C  0.44980591  0.06667824  0.25077798    -0.17500
C1349       C  0.55774932  0.90593808  0.30664974    -0.17500
C1350       C  0.53138053  0.90221259  0.32705865    -0.17500
C1351       C  0.52956614  0.04498842  0.22788061    -0.12900
C1352       C  0.56678671  0.93724365  0.25484289    -0.12900
C1353       C  0.47528458  0.92087853  0.32212373    -0.12900
C1354       C  0.42625793  0.01566060  0.27505420    -0.12900
H1355       H  0.56965857  0.01998795  0.17682658     0.20000
H1356       H  0.58863111  0.95930712  0.19028339     0.20000
H1357       H  0.37951095  0.97134650  0.30322988     0.20000
H1358       H  0.40685336  0.92071578  0.33213128     0.20000
H1359       H  0.48705342  0.09943098  0.22929274     0.18300
H1360       H  0.42926305  0.08271044  0.25248056     0.18300
H1361       H  0.57990504  0.89215275  0.30781450     0.18300
H1362       H  0.52827468  0.88364615  0.34605331     0.18300
H1363       H  0.53370103  0.99433664  0.27086050     0.31600
H1364       H  0.48261686  0.98590398  0.29982793     0.31600
C1365       C  0.38462353  0.73986364  0.58394961    -0.07900
C1366       C  0.37165891  0.73445137  0.60919323    -0.09400
C1367       C  0.45969658  0.64102406  0.74555205    -0.07900
C1368       C  0.43469590  0.65514165  0.74045564    -0.09400
C1369       C  0.57577344  0.62604873  0.73103496    -0.07900
C1370       C  0.60205958  0.63012499  0.71856823    -0.09400
C1371       C  0.29311865  0.59983066  0.66747376    -0.07900
C1372       C  0.28978040  0.57436069  0.65384376    -0.09400
C1373       C  0.63839745  0.34034887  0.77519659    -0.07900
C1374       C  0.61345713  0.35459099  0.77669934    -0.09400
C1375       C  0.77281175  0.38221682  0.65553898    -0.07900
C1376       C  0.77549586  0.40784699  0.64148585    -0.09400
C1377       C  0.74157008  0.54834662  0.63198501    -0.07900
C1378       C  0.75425393  0.52300323  0.62507191    -0.09400
C1379       C  0.64563436  0.27013976  0.59458709    -0.07900
C1380       C  0.65487782  0.28257839  0.61921026    -0.09400
C1381       C  0.74001872  0.56160165  0.38510614    -0.07900
C1382       C  0.73345029  0.58894201  0.37721794    -0.09400
C1383       C  0.69236843  0.74711738  0.40562809    -0.07900
C1384       C  0.67630115  0.74649644  0.42960129    -0.09400
C1385       C  0.64912723  0.69894491  0.53448289    -0.07900
C1386       C  0.65768555  0.68601614  0.55962722    -0.09400
C1387       C  0.59866152  0.62730205  0.26647401    -0.07900
C1388       C  0.62407599  0.64058248  0.27166150    -0.09400
C1389       C  0.30913912  0.45794337  0.64104415    -0.07900
C1390       C  0.32194067  0.43191581  0.64719759    -0.09400
C1391       C  0.47763332  0.36892254  0.72936431    -0.07900
C1392       C  0.50254323  0.37493459  0.74383746    -0.09400
C1393       C  0.39868536  0.69780252  0.44947110    -0.07900
C1394       C  0.40338616  0.71585843  0.47183184    -0.09400
C1395       C  0.48502852  0.60313837  0.28374553    -0.07900
C1396       C  0.46020668  0.60391858  0.29897684    -0.09400
C1397       C  0.65378445  0.25487186  0.45819809    -0.07900
C1398       C  0.64791638  0.24066584  0.48322048    -0.09400
C1399       C  0.74714565  0.44374006  0.39125266    -0.07900
C1400       C  0.73480224  0.41670886  0.39078638    -0.09400
C1401       C  0.55193355  0.35953747  0.30271500    -0.07900
C1402       C  0.57793265  0.35305821  0.31474367    -0.09400
C1403       C  0.40888456  0.34641231  0.31173923    -0.07900
C1404       C  0.43526155  0.35652751  0.30559199    -0.09400
C1405       C  0.32080140  0.53405489  0.40258791    -0.07900
C1406       C  0.30407242  0.51002591  0.40709219    -0.09400
C1407       C  0.25636634  0.40503004  0.37708865    -0.07900
C1408       C  0.25652654  0.37849904  0.36498867    -0.09400
C1409       C  0.40113507  0.25572535  0.56484472    -0.07900
C1410       C  0.40011010  0.27138756  0.58931207    -0.09400
C1411       C  0.38162825  0.24007035  0.45028257    -0.07900
C1412       C  0.36865678  0.24588185  0.42478650    -0.09400
C1413       C  0.35497810  0.70798857  0.52533880    -0.07900
C1414       C  0.32951466  0.69187282  0.52402876    -0.09400
C1415       C  0.25620798  0.55965698  0.58960434    -0.07900
C1416       C  0.24757245  0.58327826  0.57215543    -0.09400
C1417       C  0.24449635  0.49883931  0.44860861    -0.07900
C1418       C  0.23416280  0.52513680  0.45800201    -0.09400
C1419       C  0.69890273  0.69948495  0.48101325    -0.07900
C1420       C  0.72491355  0.68503299  0.48122293    -0.09400
C1421       C  0.79870825  0.55174957  0.42589299    -0.07900
C1422       C  0.80773539  0.57741950  0.43921021    -0.09400
C1423       C  0.80120756  0.50571323  0.57175560    -0.07900
C1424       C  0.81283681  0.53080423  0.55917100    -0.09400
C1425       C  0.84890839  0.70411571  0.32494592    -0.07900
C1426       C  0.87792034  0.70407034  0.32635560    -0.09400
C1427       C  0.91701409  0.69248681  0.38531246    -0.07900
C1428       C  0.90317019  0.67721897  0.40710096    -0.09400
C1429       C  0.97559854  0.76713058  0.30490902    -0.07900
C1430       C  0.99123536  0.79015889  0.29387590    -0.09400
C1431       C  0.97323528  0.74509208  0.37907793    -0.11000
C1432       C  0.97801967  0.77788554  0.37975105    -0.26200
H1433       H  0.98038767  0.72992743  0.39991951     0.18000
H1434       H  0.96757252  0.79397657  0.36129437     0.18600
C1435       C  0.82823595  0.68689004  0.63185712    -0.07900
C1436       C  0.85385981  0.69695773  0.62161458    -0.09400
C1437       C  0.85489725  0.67381157  0.53351467    -0.07900
C1438       C  0.86838243  0.69603723  0.54992664    -0.09400
C1439       C  0.93168925  0.79075977  0.61466441    -0.07900
C1440       C  0.94977542  0.81247569  0.62767814    -0.09400
C1441       C  0.90922820  0.76796905  0.54199772    -0.11000
C1442       C  0.92729963  0.75375802  0.51964118    -0.26200
H1443       H  0.91076737  0.79459165  0.54446575     0.18000
H1444       H  0.92852353  0.72707274  0.51890889     0.18600
C1445       C  0.17831844  0.72241580  0.67885962    -0.07900
C1446       C  0.20478654  0.71622101  0.68978222    -0.09400
C1447       C  0.15203473  0.71244889  0.61076452    -0.07900
C1448       C  0.16329328  0.69275946  0.59199269    -0.09400
C1449       C  0.09342878  0.80336365  0.66700643    -0.07900
C1450       C  0.07684525  0.82669882  0.67346523    -0.09400
C1451       C  0.10138764  0.76734344  0.59737971    -0.11000
C1452       C  0.07629197  0.78782455  0.59375308    -0.26200
H1453       H  0.11149148  0.75603869  0.57571814     0.18000
H1454       H  0.06359545  0.79695600  0.61461326     0.18600
C1455       C  0.21681965  0.69200221  0.37989652    -0.07900
C1456       C  0.24275343  0.67987135  0.37627609    -0.09400
C1457       C  0.20239514  0.67025405  0.46605597    -0.07900
C1458       C  0.19053423  0.69076077  0.44631335    -0.09400
C1459       C  0.13285560  0.77772437  0.36782444    -0.07900
C1460       C  0.11467100  0.79556959  0.35065904    -0.09400
C1461       C  0.14190642  0.75487043  0.44613490    -0.11000
C1462       C  0.13441422  0.78675075  0.44483694    -0.26200
H1463       H  0.12992433  0.73835959  0.46358162     0.18000
H1464       H  0.14663561  0.80318295  0.42752577     0.18600
C1465       C  0.77357990  0.14039774  0.10105083    -0.07900
C1466       C  0.76939157  0.13204369  0.07363555    -0.09400
C1467       C  0.91405241  0.93751279  0.27921957    -0.07900
C1468       C  0.93511634  0.91758955  0.28584682    -0.09400
C1469       C  0.84127409  0.03325169  0.26002045    -0.07900
C1470       C  0.83265728  0.06057384  0.25354984    -0.09400
C1471       C  0.06683964  0.94033476  0.26801381    -0.07900
C1472       C  0.06129421  0.91008296  0.26853412    -0.09400
C1473       C  0.91446573  0.19293655  0.15376950    -0.07900
C1474       C  0.93895454  0.20588736  0.14409422    -0.09400
C1475       C  0.22758843  0.15478924  0.10467821    -0.07900
C1476       C  0.24644576  0.15235842  0.08274245    -0.09400
C1477       C  0.11479288  0.07739010  0.21530426    -0.07900
C1478       C  0.10535325  0.05132827  0.22525268    -0.09400
C1479       C  0.05120987  0.23679490  0.15886606    -0.07900
C1480       C  0.07642630  0.22900249  0.17072848    -0.09400
C1481       C  0.89691947  0.75890978  0.25766016    -0.07900
C1482       C  0.91112064  0.74451927  0.27888852    -0.09400
C1483       C  0.78144282  0.84222935  0.02851335    -0.07900
C1484       C  0.78828626  0.83029284  0.05420274    -0.09400
C1485       C  0.88430701  0.93705109  0.21097863    -0.07900
C1486       C  0.88925156  0.91582690  0.19179998    -0.09400
C1487       C  0.02769884  0.80913547  0.16093804    -0.07900
C1488       C  0.02700406  0.79486637  0.13381505    -0.09400
C1489       C  0.94903039  0.79126848  0.08773125    -0.07900
C1490       C  0.97500490  0.78070566  0.08134508    -0.09400
C1491       C  0.18492150  0.75086715  0.30700693    -0.07900
C1492       C  0.18244809  0.73865224  0.33383973    -0.09400
C1493       C  0.10990353  0.77247260  0.12895218    -0.07900
C1494       C  0.08720324  0.76623526  0.11116562    -0.09400
C1495       C  0.14830009  0.91163969  0.23678745    -0.07900
C1496       C  0.13208669  0.93619135  0.24161887    -0.09400
C1497       C  0.25862737  0.88526076  0.07503610    -0.07900
C1498       C  0.25099590  0.86818368  0.09821466    -0.09400
C1499       C  0.03256714  0.80330006  0.82178336    -0.07900
C1500       C  0.03063744  0.82354526  0.79967041    -0.09400
C1501       C  0.14186520  0.77156163  0.71326364    -0.07900
C1502       C  0.15329690  0.78231198  0.73817022    -0.09400
C1503       C  0.10322218  0.80556452  0.88799308    -0.07900
C1504       C  0.07861243  0.79209418  0.88020907    -0.09400
C1505       C  0.26755246  0.90467009  0.95857924    -0.07900
C1506       C  0.26103931  0.89632595  0.93145314    -0.09400
C1507       C  0.14516931  0.96606301  0.73238550    -0.07900
C1508       C  0.12390978  0.94920819  0.71884705    -0.09400
C1509       C  0.16384078  0.96808483  0.80519822    -0.07900
C1510       C  0.15308018  0.94590542  0.82094898    -0.09400
C1511       C  0.21712074  0.05900209  0.76523852    -0.07900
C1512       C  0.22026371  0.08434743  0.77989577    -0.09400
C1513       C  0.28010853  0.16760078  0.94778289    -0.07900
C1514       C  0.28862141  0.16676791  0.97561300    -0.09400
C1515       C  0.10205880  0.21455765  0.89046319    -0.07900
C1516       C  0.12779964  0.20258669  0.88600670    -0.09400
C1517       C  0.98639090  0.95869440  0.72036465    -0.07900
C1518       C  0.99495096  0.93171547  0.70991328    -0.09400
C1519       C  0.94858247  0.05152644  0.79182773    -0.07900
C1520       C  0.93860664  0.07306494  0.80840219    -0.09400
C1521       C  0.96263375  0.22158653  0.87503941    -0.07900
C1522       C  0.98884457  0.23287787  0.87999447    -0.09400
C1523       C  0.81617440  0.11818057  0.93773375    -0.07900
C1524       C  0.79932258  0.11469110  0.96150664    -0.09400
C1525       C  0.88663611  0.74999036  0.65507532    -0.07900
C1526       C  0.87603856  0.76053493  0.67966747    -0.09400
C1527       C  0.83705161  0.85923837  0.89562019    -0.07900
C1528       C  0.82729640  0.86471837  0.92244552    -0.09400
C1529       C  0.91129936  0.91625483  0.75501828    -0.07900
C1530       C  0.92468198  0.94269507  0.75256824    -0.09400
C1531       C  0.96057699  0.75523759  0.81389068    -0.07900
C1532       C  0.98672127  0.74682703  0.82352243    -0.09400
C1533       C  0.55402623  0.32414717  0.74299882    -0.07900
C1534       C  0.54979902  0.29700714  0.72974284    -0.09400
C1535       C  0.57953543  0.21038269  0.61918954    -0.07900
C1536       C  0.59420983  0.21634997  0.59298045    -0.09400
C1537       C  0.44637073  0.20265316  0.54868378    -0.07900
C1538       C  0.45940582  0.19468749  0.57471967    -0.09400
C1539       C  0.87319834  0.99288127  0.80804285    -0.07900
C1540       C  0.89932551  0.99612580  0.79314102    -0.09400
C1541       C  0.78032651  0.93220658  0.90495635    -0.07900
C1542       C  0.78226713  0.91778515  0.93123349    -0.09400
C1543       C  0.74749814  0.06343488  0.97583226    -0.07900
C1544       C  0.74297887  0.04702731  0.95146935    -0.09400
C1545       C  0.22689393  0.00950692  0.81543939    -0.07900
C1546       C  0.24692080  0.01608881  0.83697557    -0.09400
C1547       C  0.31355903  0.98135437  0.95705687    -0.07900
C1548       C  0.30234435  0.96466902  0.98156608    -0.09400
C1549       C  0.33392292  0.12101054  0.00815515    -0.07900
C1550       C  0.34743214  0.10282439  0.98964087    -0.09400
C1551       C  0.51844725  0.69219240  0.69598988    -0.07900
C1552       C  0.51850893  0.66747579  0.71290073    -0.09400
C1553       C  0.46928965  0.77748959  0.59256746    -0.07900
C1554       C  0.45072855  0.76993958  0.57016081    -0.09400
C1555       C  0.58710086  0.76599922  0.54152963    -0.07900
C1556       C  0.59971914  0.75218525  0.51868213    -0.09400
C1557       C  0.36218110  0.85311650  0.71441951    -0.07900
C1558       C  0.35355010  0.82502141  0.71217132    -0.09400
C1559       C  0.29366431  0.88519828  0.76109179    -0.07900
C1560       C  0.32005209  0.89432242  0.75196135    -0.09400
C1561       C  0.43093919  0.87638655  0.71467332    -0.07900
C1562       C  0.45159780  0.86350191  0.69819853    -0.09400
C1563       C  0.36421047  0.93097723  0.79947405    -0.07900
C1564       C  0.35951729  0.94469162  0.82513802    -0.09400
C1565       C  0.43577100  0.91885051  0.77655881    -0.11000
C1566       C  0.43876427  0.91280744  0.80882047    -0.26200
H1567       H  0.45662569  0.92794013  0.76260341     0.18000
H1568       H  0.41883407  0.90260918  0.82328265     0.18600
C1569       C  0.68320720  0.78106973  0.67859733    -0.07900
C1570       C  0.67118516  0.80644349  0.68629343    -0.09400
C1571       C  0.71373553  0.84182735  0.73239183    -0.07900
C1572       C  0.74169368  0.83726660  0.73994644    -0.09400
C1573       C  0.59929855  0.82764864  0.69290465    -0.07900
C1574       C  0.57733472  0.81733162  0.67473562    -0.09400
C1575       C  0.67701413  0.88304353  0.77597147    -0.07900
C1576       C  0.69365894  0.89938888  0.79488328    -0.09400
C1577       C  0.60131792  0.87150906  0.75997688    -0.11000
C1578       C  0.60279649  0.87346091  0.79294673    -0.26200
H1579       H  0.58103257  0.88203016  0.74651335     0.18000
H1580       H  0.62306945  0.86273470  0.80620579     0.18600
C1581       C  0.68276377  0.14572106  0.75233426    -0.07900
C1582       C  0.68586253  0.17486098  0.75114729    -0.09400
C1583       C  0.76124433  0.12390087  0.79219836    -0.07900
C1584       C  0.73690706  0.11144686  0.78195707    -0.09400
C1585       C  0.63006946  0.09941140  0.73263332    -0.07900
C1586       C  0.60860350  0.11308505  0.71765637    -0.09400
C1587       C  0.71910259  0.04163322  0.79474335    -0.07900
C1588       C  0.73653837  0.02564695  0.81242556    -0.09400
C1589       C  0.64445049  0.03437722  0.77150683    -0.11000
C1590       C  0.63827982  0.02882530  0.80333068    -0.26200
H1591       H  0.62748945  0.02539827  0.75296664     0.18000
H1592       H  0.65351144  0.03968158  0.82235900     0.18600
C1593       C  0.37638283  0.15813983  0.81491991    -0.07900
C1594       C  0.35156020  0.17132856  0.82034637    -0.09400
C1595       C  0.40540292  0.21233743  0.74914934    -0.07900
C1596       C  0.41365812  0.18694100  0.76214336    -0.09400
C1597       C  0.47023024  0.14901828  0.74261413    -0.07900
C1598       C  0.48628246  0.16386879  0.72024853    -0.09400
C1599       C  0.39513127  0.08828252  0.83633157    -0.07900
C1600       C  0.37753683  0.07154405  0.85664178    -0.09400
C1601       C  0.47206677  0.06584505  0.82214443    -0.11000
C1602       C  0.46633570  0.08148964  0.79341564    -0.26200
H1603       H  0.45897512  0.07290512  0.84395923     0.18000
H1604       H  0.47962171  0.07483755  0.77155588     0.18600
C1605       C  0.70140027  0.49540742  0.32748550    -0.07900
C1606       C  0.71798480  0.49893163  0.35204582    -0.09400
C1607       C  0.58607995  0.56083789  0.23555748    -0.07900
C1608       C  0.60832676  0.54162520  0.23145019    -0.09400
C1609       C  0.55384593  0.42332451  0.23849879    -0.07900
C1610       C  0.53072059  0.41066647  0.25253770    -0.09400
C1611       C  0.84445275  0.79206277  0.97805815    -0.07900
C1612       C  0.82743166  0.81676298  0.97807542    -0.09400
C1613       C  0.99017424  0.68399295  0.89000488    -0.07900
C1614       C  0.01042711  0.69610459  0.87223147    -0.09400
C1615       C  0.96517041  0.71869198  0.01643299    -0.07900
C1616       C  0.99088720  0.72939550  0.03195132    -0.09400
C1617       C  0.82374594  0.18649359  0.01901464    -0.07900
C1618       C  0.80651551  0.16167397  0.01778581    -0.09400
C1619       C  0.98545496  0.28200318  0.95374591    -0.07900
C1620       C  0.00846479  0.27367941  0.93685024    -0.09400
C1621       C  0.92933595  0.26582547  0.07381116    -0.07900
C1622       C  0.95198119  0.25684654  0.09088637    -0.09400
C1623       C  0.73659661  0.47602440  0.70133707    -0.07900
C1624       C  0.74915748  0.46990185  0.67443583    -0.09400
C1625       C  0.60570225  0.42789441  0.78927314    -0.07900
C1626       C  0.63040860  0.44604827  0.79305589    -0.09400
C1627       C  0.58418541  0.56710610  0.79561789    -0.07900
C1628       C  0.55868506  0.57910593  0.78539120    -0.09400
C1629       C  0.79506190  0.34425487  0.83624513    -0.07900
C1630       C  0.78679111  0.33075783  0.81162033    -0.09400
C1631       C  0.83625492  0.30499651  0.87614452    -0.07900
C1632       C  0.84081820  0.27879468  0.86399410    -0.09400
C1633       C  0.74564835  0.41901572  0.86418828    -0.07900
C1634       C  0.76504235  0.39879579  0.87401126    -0.09400
C1635       C  0.83679131  0.32957033  0.94759637    -0.07900
C1636       C  0.85127354  0.31631775  0.97005777    -0.09400
C1637       C  0.78668645  0.38812472  0.94786520    -0.11000
C1638       C  0.75551245  0.39709715  0.94921260    -0.26200
H1639       H  0.80422424  0.39701159  0.96588993     0.18000
H1640       H  0.73766380  0.38735008  0.93198225     0.18600
C1641       C  0.75276801  0.64410646  0.78657778    -0.07900
C1642       C  0.76383854  0.63606319  0.81273759    -0.09400
C1643       C  0.80626060  0.67796893  0.85310063    -0.07900
C1644       C  0.81084125  0.70534631  0.84287951    -0.09400
C1645       C  0.74794239  0.57001574  0.84241574    -0.07900
C1646       C  0.72764086  0.55000731  0.82897166    -0.09400
C1647       C  0.83586334  0.64311531  0.91357584    -0.07900
C1648       C  0.85744340  0.65807563  0.93103461    -0.09400
C1649       C  0.78580991  0.57537062  0.91460279    -0.11000
C1650       C  0.75534254  0.56460688  0.92035599    -0.26200
H1651       H  0.80549597  0.56982734  0.93158071     0.18000
H1652       H  0.73500473  0.57290405  0.90551521     0.18600
C1653       C  0.79596002  0.62258228  0.19296381    -0.07900
C1654       C  0.78504576  0.63760714  0.21497759    -0.09400
C1655       C  0.83812944  0.68567595  0.15012230    -0.07900
C1656       C  0.83573812  0.65651659  0.14683216    -0.09400
C1657       C  0.73180612  0.55692740  0.16998399    -0.07900
C1658       C  0.75542132  0.57161591  0.15951569    -0.09400
C1659       C  0.85585511  0.63382380  0.06280335    -0.07900
C1660       C  0.83764934  0.62307488  0.08360248    -0.09400
C1661       C  0.77314616  0.57930614  0.08505933    -0.11000
C1662       C  0.74026559  0.57956864  0.08539386    -0.26200
H1663       H  0.78598832  0.56940063  0.06420302     0.18000
H1664       H  0.72699814  0.58987011  0.10568119     0.18600
C1665       C  0.79826646  0.29883366  0.18808613    -0.07900
C1666       C  0.79139924  0.32659400  0.18100326    -0.09400
C1667       C  0.74309606  0.35672924  0.22149854    -0.07900
C1668       C  0.73341052  0.34349397  0.24573266    -0.09400
C1669       C  0.71270446  0.41654992  0.18897055    -0.07900
C1670       C  0.69153671  0.43380880  0.20117247    -0.09400
C1671       C  0.80152963  0.36317275  0.11805020    -0.07900
C1672       C  0.82131028  0.35191225  0.09869715    -0.09400
C1673       C  0.74691001  0.41775525  0.11628914    -0.11000
C1674       C  0.71632170  0.42722715  0.10987058    -0.26200
H1675       H  0.76586460  0.42231250  0.09816927     0.18000
H1676       H  0.69646149  0.42267751  0.12681984     0.18600
C1677       C  0.24031001  0.19321309  0.02205347    -0.07900
C1678       C  0.21931053  0.21339652  0.01688517    -0.09400
C1679       C  0.03234616  0.27084969  0.09424619    -0.07900
C1680       C  0.05401890  0.28304940  0.07682845    -0.09400
C1681       C  0.08877712  0.26874812  0.93851461    -0.07900
C1682       C  0.11023160  0.28058553  0.95564679    -0.09400
C1683       C  0.33979757  0.51752095  0.70845499    -0.07900
C1684       C  0.32381359  0.51713526  0.68296396    -0.09400
C1685       C  0.49574615  0.44279810  0.80107251    -0.07900
C1686       C  0.52030665  0.42920341  0.79106912    -0.09400
C1687       C  0.44880780  0.56303055  0.79143069    -0.07900
C1688       C  0.47353436  0.57883595  0.78370148    -0.09400
C1689       C  0.22345856  0.83234132  0.01142759    -0.07900
C1690       C  0.23897461  0.85895832  0.01159687    -0.09400
C1691       C  0.08458300  0.73386689  0.04830882    -0.07900
C1692       C  0.11457000  0.73081528  0.04246823    -0.09400
C1693       C  0.08064660  0.72067337  0.89681963    -0.07900
C1694       C  0.10205066  0.71330890  0.91617352    -0.09400
C1695       C  0.27869476  0.72148736  0.89631932    -0.07900
C1696       C  0.26648679  0.74430580  0.88259299    -0.09400
C1697       C  0.32200281  0.67937338  0.86091588    -0.07900
C1698       C  0.32411389  0.68483879  0.83232837    -0.09400
C1699       C  0.25651421  0.68847877  0.95877700    -0.07900
C1700       C  0.23215837  0.69944186  0.97166668    -0.09400
C1701       C  0.33756751  0.61850008  0.89786147    -0.07900
C1702       C  0.35169210  0.59579713  0.88468829    -0.09400
C1703       C  0.33054184  0.60673241  0.97067686    -0.11000
C1704       C  0.30355505  0.62450051  0.96681977    -0.26200
H1705       H  0.35370290  0.61544449  0.96078988     0.18000
H1706       H  0.28091643  0.61747345  0.97891411     0.18600
C1707       C  0.26320715  0.34371059  0.85631551    -0.07900
C1708       C  0.25615408  0.31558975  0.85035686    -0.09400
C1709       C  0.31835564  0.37494722  0.82378235    -0.07900
C1710       C  0.32995780  0.36044557  0.80169885    -0.09400
C1711       C  0.21636862  0.37279299  0.92908551    -0.07900
C1712       C  0.23654450  0.38488126  0.90952167    -0.09400
C1713       C  0.33224354  0.44586946  0.84750134    -0.07900
C1714       C  0.35459663  0.46446081  0.83729608    -0.09400
C1715       C  0.28045202  0.45466867  0.90391810    -0.11000
C1716       C  0.26052473  0.45665465  0.92939331    -0.26200
H1717       H  0.30189386  0.47076604  0.90288292     0.18000
H1718       H  0.23895754  0.44130410  0.93181153     0.18600
C1719       C  0.31581264  0.46762933  0.32839841    -0.07900
C1720       C  0.29980160  0.46220412  0.35323943    -0.09400
C1721       C  0.42532633  0.43104407  0.25051436    -0.07900
C1722       C  0.44850519  0.41399251  0.26009648    -0.09400
C1723       C  0.47976349  0.54597681  0.21952551    -0.07900
C1724       C  0.50466564  0.55919784  0.22910819    -0.09400
C1725       C  0.19256144  0.31778551  0.15808980    -0.07900
C1726       C  0.18492390  0.29602925  0.17688515    -0.09400
C1727       C  0.25032515  0.33612614  0.19317051    -0.07900
C1728       C  0.25840020  0.32174565  0.21750965    -0.09400
C1729       C  0.28971978  0.38644332  0.15800677    -0.07900
C1730       C  0.31085235  0.40299840  0.17100472    -0.09400
C1731       C  0.18314770  0.33612431  0.06077659    -0.07900
C1732       C  0.19902600  0.34457279  0.08460220    -0.09400
C1733       C  0.26204960  0.38965044  0.08473404    -0.11000
C1734       C  0.29400101  0.39661718  0.08224964    -0.26200
H1735       H  0.24489971  0.40086735  0.06776998     0.18000
H1736       H  0.31141447  0.38552658  0.09889036     0.18600
C1737       C  0.25403191  0.65696723  0.17741694    -0.07900
C1738       C  0.24644646  0.68570483  0.17862413    -0.09400
C1739       C  0.29770276  0.61015821  0.24972109    -0.07900
C1740       C  0.28736414  0.60774906  0.22278697    -0.09400
C1741       C  0.24454921  0.62776139  0.11130431    -0.07900
C1742       C  0.22682303  0.64421296  0.09286209    -0.09400
C1743       C  0.33712320  0.53374702  0.20174482    -0.07900
C1744       C  0.31842618  0.55400715  0.18798328    -0.09400
C1745       C  0.33147417  0.55968234  0.11313350    -0.11000
C1746       C  0.30023527  0.56907218  0.11180042    -0.26200
H1747       H  0.34795605  0.56738763  0.13257143     0.18000
H1748       H  0.28481482  0.56281145  0.09095043     0.18600
C1749       C  0.99515488  0.18139493  0.21369343    -0.07900
C1750       C  0.99563919  0.19883980  0.18880600    -0.09400
C1751       C  0.03431806  0.05818428  0.28451544    -0.07900
C1752       C  0.05108489  0.03351474  0.27372658    -0.09400
C1753       C  0.89174482  0.00747438  0.30644820    -0.07900
C1754       C  0.90846584  0.02874474  0.31856329    -0.09400
C1755       C  0.68769013  0.27251574  0.53270604    -0.07900
C1756       C  0.71273055  0.28748361  0.52394282    -0.09400
C1757       C  0.82031775  0.44255179  0.43354772    -0.07900
C1758       C  0.80845078  0.46777450  0.42295278    -0.09400
C1759       C  0.79921046  0.39608248  0.55145768    -0.07900
C1760       C  0.79474405  0.41997269  0.57006290    -0.09400
C1761       C  0.04601659  0.20362876  0.84429246    -0.07900
C1762       C  0.04742351  0.18734429  0.81890802    -0.09400
C1763       C  0.17167138  0.03448228  0.71271769    -0.07900
C1764       C  0.15111265  0.05304845  0.70378711    -0.09400
C1765       C  0.00211163  0.04451558  0.74007074    -0.07900
C1766       C  0.01983987  0.06983342  0.73468439    -0.09400
C1767       C  0.89159004  0.17672362  0.68468040    -0.07900
C1768       C  0.88734129  0.17581918  0.71379682    -0.09400
C1769       C  0.81457077  0.21749785  0.66792676    -0.07900
C1770       C  0.83836576  0.20953238  0.65375469    -0.09400
C1771       C  0.95209677  0.18372316  0.64240287    -0.07900
C1772       C  0.97587876  0.16904448  0.65001649    -0.09400
C1773       C  0.86351824  0.25321809  0.60231288    -0.07900
C1774       C  0.85171589  0.27378779  0.58531826    -0.09400
C1775       C  0.93933735  0.24630314  0.60015807    -0.11000
C1776       C  0.93677894  0.27939134  0.59822889    -0.26200
H1777       H  0.96102840  0.23482361  0.59062597     0.18000
H1778       H  0.91604231  0.29197026  0.60824606     0.18600
C1779       C  0.86305669  0.19642609  0.34842409    -0.07900
C1780       C  0.85095098  0.19183700  0.32246115    -0.09400
C1781       C  0.82578701  0.24272352  0.38595607    -0.07900
C1782       C  0.79926558  0.25332841  0.37946422    -0.09400
C1783       C  0.93376271  0.18598598  0.36732276    -0.07900
C1784       C  0.95052491  0.16476399  0.35070947    -0.09400
C1785       C  0.84412170  0.29763251  0.45430671    -0.07900
C1786       C  0.86095235  0.27695561  0.43785460    -0.09400
C1787       C  0.93852083  0.24792864  0.42680773    -0.11000
C1788       C  0.94197632  0.27915370  0.43724787    -0.26200
H1789       H  0.95695841  0.22982800  0.43241790     0.18000
H1790       H  0.92356774  0.29716515  0.43143558     0.18600
C1791       C  0.35403443  0.27002959  0.51128984    -0.07900
C1792       C  0.32998107  0.28727095  0.51500826    -0.09400
C1793       C  0.24127933  0.38939970  0.46906573    -0.07900
C1794       C  0.24459813  0.41299077  0.44986793    -0.09400
C1795       C  0.25492160  0.47501571  0.59297038    -0.07900
C1796       C  0.24219356  0.44989509  0.58252070    -0.09400
C1797       C  0.15722232  0.16764244  0.36100357    -0.07900
C1798       C  0.15896521  0.17221030  0.33189862    -0.09400
C1799       C  0.20746199  0.20265557  0.39436702    -0.07900
C1800       C  0.22822529  0.21304974  0.37680640    -0.09400
C1801       C  0.18273408  0.26045126  0.46290304    -0.07900
C1802       C  0.17685563  0.23368485  0.45142365    -0.09400
C1803       C  0.07901488  0.13889733  0.39135795    -0.07900
C1804       C  0.10229453  0.15020959  0.40542538    -0.09400
C1805       C  0.08090114  0.20083695  0.45927426    -0.11000
C1806       C  0.11284001  0.19948517  0.46573769    -0.26200
H1807       H  0.07097979  0.19201048  0.43635005     0.18000
H1808       H  0.12257911  0.21181221  0.48728498     0.18600
C1809       C  0.19177483  0.21516316  0.69745824    -0.07900
C1810       C  0.20225434  0.21158150  0.72433475    -0.09400
C1811       C  0.22928575  0.26152681  0.65816974    -0.07900
C1812       C  0.25549668  0.27203178  0.66664202    -0.09400
C1813       C  0.12309531  0.20078504  0.67192022    -0.07900
C1814       C  0.10441091  0.18077341  0.68675293    -0.09400
C1815       C  0.19242014  0.28710484  0.60068194    -0.07900
C1816       C  0.20585907  0.30736288  0.58157944    -0.09400
C1817       C  0.12122501  0.25176124  0.60680671    -0.11000
C1818       C  0.09046313  0.24879651  0.61708419    -0.26200
H1819       H  0.12642742  0.25906685  0.58159816     0.18000
H1820       H  0.08455985  0.24461511  0.64270870     0.18600
C1821       C  0.15453581  0.99802346  0.21185700    -0.07900
C1822       C  0.18131781  0.99665206  0.19799207    -0.09400
C1823       C  0.30665595  0.10959646  0.07871065    -0.07900
C1824       C  0.31160462  0.08684529  0.09709050    -0.09400
C1825       C  0.28854865  0.95083824  0.07300958    -0.07900
C1826       C  0.28903420  0.95808279  0.10279885    -0.09400
C1827       C  0.53636006  0.67644226  0.31478871    -0.07900
C1828       C  0.53860708  0.65209979  0.29781594    -0.09400
C1829       C  0.46930641  0.77874654  0.46544839    -0.07900
C1830       C  0.45429246  0.76798203  0.48886608    -0.09400
C1831       C  0.58581546  0.76581388  0.41287959    -0.07900
C1832       C  0.60355131  0.75888018  0.43639930    -0.09400
C1833       C  0.80944062  0.99299961  0.18511301    -0.07900
C1834       C  0.83107866  0.98808481  0.20506591    -0.09400
C1835       C  0.72812867  0.05092690  0.08025651    -0.07900
C1836       C  0.73716440  0.06843246  0.05719431    -0.09400
C1837       C  0.74130212  0.92737779  0.03202473    -0.07900
C1838       C  0.75552434  0.91095242  0.01095713    -0.09400
C1839       C  0.71826703  0.86070139  0.19712608    -0.07900
C1840       C  0.74420557  0.84903954  0.19129636    -0.09400
C1841       C  0.68567531  0.81987614  0.24453991    -0.07900
C1842       C  0.69814440  0.79520517  0.25376195    -0.09400
C1843       C  0.67715383  0.92266837  0.18136020    -0.07900
C1844       C  0.68528974  0.94388876  0.16163235    -0.09400
C1845       C  0.62479209  0.84972317  0.26927801    -0.07900
C1846       C  0.60759621  0.83729955  0.29052275    -0.09400
C1847       C  0.61953957  0.91961212  0.23310681    -0.11000
C1848       C  0.58918773  0.91228168  0.24269716    -0.26200
H1849       H  0.62807686  0.94499662  0.23161085     0.18000
H1850       H  0.58079846  0.88685975  0.24378790     0.18600
C1851       C  0.35119520  0.82638524  0.24972361    -0.07900
C1852       C  0.32280536  0.82454045  0.24186736    -0.09400
C1853       C  0.39337052  0.77946701  0.28779398    -0.07900
C1854       C  0.38659127  0.75301027  0.29887876    -0.09400
C1855       C  0.38603323  0.88791500  0.23449252    -0.07900
C1856       C  0.36949416  0.90725404  0.21793351    -0.09400
C1857       C  0.47957342  0.80214373  0.32623963    -0.07900
C1858       C  0.45803837  0.81253843  0.30765070    -0.09400
C1859       C  0.46173992  0.88890936  0.31238453    -0.11000
C1860       C  0.45100040  0.88562377  0.28117338    -0.26200
H1861       H  0.45659080  0.87080951  0.33141088     0.18000
H1862       H  0.45401155  0.90581348  0.26369944     0.18600
C1863       C  0.49492570  0.31731139  0.32231510    -0.07900
C1864       C  0.49738510  0.29014546  0.33568381    -0.09400
C1865       C  0.44417380  0.20436101  0.46340218    -0.07900
C1866       C  0.46029806  0.19772269  0.43887310    -0.09400
C1867       C  0.58089185  0.18738814  0.48373836    -0.07900
C1868       C  0.59472185  0.19799924  0.50845569    -0.09400
C1869       C  0.31516493  0.12528393  0.23050830    -0.07900
C1870       C  0.29082427  0.14042584  0.22614207    -0.09400
C1871       C  0.36556487  0.18867950  0.26090047    -0.07900
C1872       C  0.36965944  0.15979359  0.25930614    -0.09400
C1873       C  0.42442027  0.12378451  0.32688325    -0.07900
C1874       C  0.40330689  0.11522638  0.30776535    -0.09400
C1875       C  0.32333226  0.05054657  0.23997934    -0.07900
C1876       C  0.31245224  0.03049993  0.22094234    -0.09400
C1877       C  0.37941322  0.04498655  0.29263626    -0.11000
C1878       C  0.39330473  0.02733151  0.26936685    -0.26200
H1879       H  0.38944806  0.04454310  0.31737155     0.18000
H1880       H  0.38632380  0.03078184  0.24381024     0.18600
C1881       C  0.68920830  0.15804843  0.23330861    -0.07900
C1882       C  0.66270916  0.14764921  0.24013278    -0.09400
C1883       C  0.63095356  0.17732541  0.29509405    -0.07900
C1884       C  0.64359309  0.20101155  0.30687150    -0.09400
C1885       C  0.62715858  0.08633784  0.21495780    -0.07900
C1886       C  0.64017425  0.06893625  0.19349924    -0.09400
C1887       C  0.56781829  0.14604483  0.31419811    -0.07900
C1888       C  0.55299144  0.15807377  0.33823478    -0.09400
C1889       C  0.55811210  0.08764611  0.25747698    -0.11000
C1890       C  0.55117742  0.07381709  0.22838721    -0.26200
H1891       H  0.54387373  0.08125825  0.27911090     0.18000
H1892       H  0.56497083  0.07989310  0.20650134     0.18600
loop_ 
_geom_bond_atom_site_label_1 
_geom_bond_atom_site_label_2 
_geom_bond_distance 
_geom_bond_site_symmetry_2 
_ccdc_geom_bond_type 
N1            C5   1.344       .  A
N1            C2   1.352       .  A
N1         C1883   1.391       .  S
C2            C3   1.376       .  A
C2         C1882   1.426       .  S
C3            C4   1.439       .  A
C3         C1885   1.528       .  S
C4            C5   1.438       .  A
C4         C1889   1.458       .  S
C5         C1887   1.535       .  S
N6           C10   1.343       .  A
N6            C7   1.342       .  A
N6         C1872   1.393       .  S
C7            C8   1.375       .  A
C7         C1869   1.425       .  S
C8            C9   1.391       .  A
C8         C1875   1.449       .  S
C9           C10   1.388       .  A
C9         C1877   1.453       .  S
C10        C1874   1.454       .  S
C11          C13   1.534       .  S
C11          C15   1.518       .  S
C11          C14   1.552       .  S
C11        C1866   1.523       .  S
C12          C16   1.553       .  S
C12          C18   1.597       .  S
C12          C17   1.569       .  S
C12        C1888   1.567       .  S
C13          C21   1.385       .  A
C13          C16   1.415       .  A
C14          C25   1.389       .  A
C14          C17   1.410       .  A
C15          C29   1.370       .  A
C15          C18   1.405       .  A
C16          C19   1.386       .  A
C17          C23   1.396       .  A
C18          C26   1.421       .  A
C19          N20   1.352       .  A
C19          H32   1.083       .  S
N20          C21   1.354       .  A
N20        C1873   1.409       .  S
C21          H22   1.083       .  S
C23          N24   1.369       .  A
C23          H33   1.082       .  S
N24          C25   1.363       .  A
N24        C1864   1.432       .  S
C25          H31   1.082       .  S
C26          N27   1.384       .  A
C26          H28   1.082       .  S
N27          C29   1.341       .  A
N27        C1867   1.431       .  S
C29          H30   1.084       .  S
N34          C38   1.346       .  A
N34          C35   1.357       .  A
N34        C1851   1.409       .  S
C35          C36   1.383       .  A
C35        C1853   1.420       .  S
C36          C37   1.405       .  A
C36        C1858   1.499       .  S
C37          C38   1.419       .  A
C37        C1860   1.455       .  S
C38        C1855   1.498       .  S
N39          C43   1.340       .  A
N39          C40   1.339       .  A
N39        C1841   1.391       .  S
C40          C41   1.379       .  A
C40        C1839   1.430       .  S
C41          C42   1.401       .  A
C41        C1843   1.460       .  S
C42          C43   1.403       .  A
C42        C1847   1.464       .  S
C43        C1845   1.468       .  S
C44          C46   1.556   1_545  S
C44          C48   1.580       .  S
C44          C47   1.559       .  S
C44        C1835   1.505       .  S
C45          C49   1.565       .  S
C45          C51   1.559   1_565  S
C45          C50   1.527       .  S
C45        C1844   1.490       .  S
C46          C54   1.404       .  A
C46          C49   1.401       .  A
C47          C58   1.397       .  A
C47          C50   1.396   1_545  A
C48          C62   1.421       .  A
C48          C51   1.402       .  A
C49          C52   1.417       .  A
C50          C56   1.372       .  A
C51          C59   1.408       .  A
C52          N53   1.372       .  A
C52          H65   1.082       .  S
N53          C54   1.357       .  A
N53        C1837   1.449       .  S
C54          H55   1.083       .  S
C56          N57   1.352       .  A
C56          H66   1.083       .  S
N57          C58   1.369   1_565  A
N57        C1833   1.416       .  S
C58          H64   1.082       .  S
C59          N60   1.364       .  A
C59          H61   1.083   1_545  S
N60          C62   1.377       .  A
N60        C1886   1.462       .  S
C62          H63   1.082       .  S
C67          C69   1.555       .  S
C67          C71   1.548       .  S
C67          C70   1.544       .  S
C67        C1857   1.525       .  S
C68          C72   1.530       .  S
C68          C74   1.544       .  S
C68          C73   1.553       .  S
C68        C1831   1.518       .  S
C69          C77   1.398       .  A
C69          C72   1.410       .  A
C70          C81   1.382       .  A
C70          C73   1.410       .  A
C71          C85   1.384       .  A
C71          C74   1.405       .  A
C72          C75   1.376       .  A
C73          C79   1.388       .  A
C74          C82   1.389       .  A
C75          N76   1.343       .  A
C75          H88   1.083       .  S
N76          C77   1.363       .  A
N76        C1829   1.410       .  S
C77          H78   1.082       .  S
C79          N80   1.361       .  A
C79          H89   1.082       .  S
N80          C81   1.358       .  A
N80        C1827   1.416       .  S
C81          H87   1.083       .  S
C82          N83   1.362       .  A
C82          H84   1.082       .  S
N83          C85   1.358       .  A
N83        C1846   1.418       .  S
C85          H86   1.083       .  S
C90          C92   1.534   1_565  S
C90          C94   1.595       .  S
C90          C93   1.601       .  S
C90        C1826   1.544       .  S
C91          C95   1.523       .  S
C91          C97   1.529   1_545  S
C91          C96   1.529       .  S
C91        C1876   1.477       .  S
C92         C100   1.379       .  A
C92          C95   1.392       .  A
C93         C104   1.418       .  A
C93          C96   1.405   1_565  A
C94         C108   1.416       .  A
C94          C97   1.402       .  A
C95          C98   1.384       .  A
C96         C102   1.380       .  A
C97         C105   1.382       .  A
C98          N99   1.353       .  A
C98         H111   1.083       .  S
N99         C100   1.347       .  A
N99        C1824   1.400       .  S
C100        H101   1.083       .  S
C102        N103   1.354   1_545  A
C102        H112   1.083       .  S
N103        C104   1.383       .  A
N103       C1822   1.442       .  S
C104        H110   1.082       .  S
C105        N106   1.354       .  A
C105        H107   1.083       .  S
N106        C108   1.382       .  A
N106       C1856   1.441       .  S
C108        H109   1.082       .  S
N113        C117   1.341       .  A
N113        C114   1.354       .  A
N113       C1811   1.403       .  S
C114        C115   1.383       .  A
C114       C1809   1.408       .  S
C115        C116   1.434       .  A
C115       C1813   1.534       .  S
C116        C117   1.426       .  A
C116       C1817   1.448       .  S
C117       C1815   1.517       .  S
N118        C122   1.341       .  A
N118        C119   1.340       .  A
N118       C1799   1.386       .  S
C119        C120   1.372       .  A
C119       C1797   1.441       .  S
C120        C121   1.394       .  A
C120       C1804   1.432       .  S
C121        C122   1.385       .  A
C121       C1806   1.465       .  S
C122       C1802   1.452       .  S
C123        C125   1.566       .  S
C123        C127   1.542       .  S
C123        C126   1.566       .  S
C123       C1816   1.547       .  S
C124        C128   1.526       .  S
C124        C130   1.539       .  S
C124        C129   1.558       .  S
C124       C1793   1.524       .  S
C125        C133   1.407       .  A
C125        C128   1.405       .  A
C126        C137   1.394       .  A
C126        C129   1.413       .  A
C127        C141   1.378       .  A
C127        C130   1.417       .  A
C128        C131   1.373       .  A
C129        C135   1.392       .  A
C130        C138   1.393       .  A
C131        N132   1.341       .  A
C131        H144   1.083       .  S
N132        C133   1.371       .  A
N132       C1796   1.417       .  S
C133        H134   1.082       .  S
C135        N136   1.364       .  A
C135        H145   1.082       .  S
N136        C137   1.367       .  A
N136       C1792   1.431       .  S
C137        H143   1.082       .  S
C138        N139   1.356       .  A
C138        H140   1.083       .  S
N139        C141   1.343       .  A
N139       C1801   1.405       .  S
C141        H142   1.083       .  S
N146        C150   1.339       .  A
N146        C147   1.367       .  A
N146       C1781   1.407       .  S
C147        C148   1.396       .  A
C147       C1779   1.405       .  S
C148        C149   1.480       .  A
C148       C1783   1.611       .  S
C149        C150   1.472       .  A
C149       C1787   1.464       .  S
C150       C1786   1.586       .  S
N151        C155   1.341       .  A
N151        C152   1.337       .  A
N151       C1770   1.390       .  S
C152        C153   1.377       .  A
C152       C1767   1.436       .  S
C153        C154   1.379       .  A
C153       C1771   1.416       .  S
C154        C155   1.378       .  A
C154       C1775   1.480       .  S
C155       C1773   1.419       .  S
C156        C158   1.529       .  S
C156        C160   1.529       .  S
C156        C159   1.568       .  S
C156       C1814   1.566       .  S
C157        C161   1.537       .  S
C157        C163   1.541       .  S
C157        C162   1.579       .  S
C157       C1766   1.579       .  S
C158        C166   1.370       .  A
C158        C161   1.411       .  A
C159        C170   1.391       .  A
C159        C162   1.425       .  A
C160        C174   1.366       .  A
C160        C163   1.422       .  A
C161        C164   1.369       .  A
C162        C168   1.400       .  A
C163        C171   1.372       .  A
C164        N165   1.355       .  A
C164        H177   1.083       .  S
N165        C166   1.351       .  A
N165       C1764   1.389       .  S
C166        H167   1.083       .  S
C168        N169   1.371       .  A
C168        H178   1.082       .  S
N169        C170   1.365       .  A
N169       C1762   1.437       .  S
C170        H176   1.082       .  S
C171        N172   1.352       .  A
C171        H173   1.083   1_455  S
N172        C174   1.345       .  A
N172       C1772   1.385   1_455  S
C174        H175   1.084       .  S
C179        C181   1.521       .  S
C179        C183   1.507       .  S
C179        C182   1.559       .  S
C179       C1759   1.558       .  S
C180        C184   1.539       .  S
C180        C186   1.583       .  S
C180        C185   1.601       .  S
C180       C1785   1.618       .  S
C181        C189   1.375       .  A
C181        C184   1.431       .  A
C182        C193   1.387       .  A
C182        C185   1.437       .  A
C183        C197   1.359       .  A
C183        C186   1.410       .  A
C184        C187   1.371       .  A
C185        C191   1.412       .  A
C186        C194   1.410       .  A
C187        N188   1.342       .  A
C187        H200   1.083       .  S
N188        C189   1.342       .  A
N188       C1774   1.381       .  S
C189        H190   1.083       .  S
C191        N192   1.376       .  A
C191        H201   1.082       .  S
N192        C193   1.356       .  A
N192       C1756   1.439       .  S
C193        H199   1.083       .  S
C194        N195   1.376       .  A
C194        H196   1.082       .  S
N195        C197   1.336       .  A
N195       C1757   1.412       .  S
C197        H198   1.084       .  S
C202        C204   1.570       .  S
C202        C206   1.548   1_655  S
C202        C205   1.579       .  S
C202       C1784   1.650       .  S
C203        C207   1.534   1_455  S
C203        C209   1.550       .  S
C203        C208   1.583       .  S
C203       C1751   1.647       .  S
C204        C212   1.389       .  A
C204        C207   1.433       .  A
C205        C216   1.392       .  A
C205        C208   1.443   1_655  A
C206        C220   1.370       .  A
C206        C209   1.434       .  A
C207        C210   1.358       .  A
C208        C214   1.395       .  A
C209        C217   1.373       .  A
C210        N211   1.346       .  A
C210        H223   1.084       .  S
N211        C212   1.365       .  A
N211       C1754   1.398       .  S
C212        H213   1.082       .  S
C214        N215   1.368   1_455  A
C214        H224   1.082       .  S
N215        C216   1.366       .  A
N215       C1749   1.433       .  S
C216        H222   1.082       .  S
C217        N218   1.356       .  A
C217        H219   1.083       .  S
N218        C220   1.353       .  A
N218       C1803   1.394       .  S
C220        H221   1.083       .  S
N225        C229   1.347       .  A
N225        C226   1.360       .  A
N225       C1740   1.375       .  S
C226        C227   1.376       .  A
C226       C1737   1.459       .  S
C227        C228   1.428       .  A
C227       C1741   1.499       .  S
C228        C229   1.418       .  A
C228       C1746   1.453       .  S
C229       C1744   1.539       .  S
N230        C234   1.337       .  A
N230        C231   1.343       .  A
N230       C1727   1.397       .  S
C231        C232   1.391       .  A
C231       C1725   1.436       .  S
C232        C233   1.400       .  A
C232       C1732   1.458       .  S
C233        C234   1.398       .  A
C233       C1733   1.472       .  S
C234       C1729   1.456       .  S
C235        C237   1.567       .  S
C235        C239   1.548       .  S
C235        C238   1.566       .  S
C235       C1743   1.565       .  S
C236        C240   1.514       .  S
C236        C242   1.544       .  S
C236        C241   1.551       .  S
C236       C1721   1.538       .  S
C237        C245   1.400       .  A
C237        C240   1.402       .  A
C238        C249   1.395       .  A
C238        C241   1.419       .  A
C239        C253   1.376       .  A
C239        C242   1.421       .  A
C240        C243   1.363       .  A
C241        C247   1.385       .  A
C242        C250   1.387       .  A
C243        N244   1.341       .  A
C243        H256   1.084       .  S
N244        C245   1.372       .  A
N244       C1723   1.407       .  S
C245        H246   1.082       .  S
C247        N248   1.358       .  A
C247        H257   1.083       .  S
N248        C249   1.366       .  A
N248       C1719   1.425       .  S
C249        H255   1.082       .  S
C250        N251   1.356       .  A
C250        H252   1.082       .  S
N251        C253   1.350       .  A
N251       C1730   1.409       .  S
C253        H254   1.079       .  S
N258        C262   1.344       .  A
N258        C259   1.351       .  A
N258       C1707   1.404       .  S
C259        C260   1.381       .  A
C259       C1709   1.414       .  S
C260        C261   1.416       .  A
C260       C1713   1.515       .  S
C261        C262   1.432       .  A
C261       C1715   1.455       .  S
C262       C1712   1.508       .  S
N263        C267   1.339       .  A
N263        C264   1.344       .  A
N263       C1697   1.387       .  S
C264        C265   1.374       .  A
C264       C1695   1.429       .  S
C265        C266   1.406       .  A
C265       C1699   1.469       .  S
C266        C267   1.406       .  A
C266       C1704   1.459       .  S
C267       C1701   1.484       .  S
C268        C270   1.536   1_554  S
C268        C272   1.597       .  S
C268        C271   1.605       .  S
C268       C1692   1.561       .  S
C269        C273   1.543       .  S
C269        C275   1.530   1_556  S
C269        C274   1.541   1_556  S
C269       C1700   1.501       .  S
C270        C278   1.378       .  A
C270        C273   1.395       .  A
C271        C282   1.420       .  A
C271        C274   1.410       .  A
C272        C286   1.423       .  A
C272        C275   1.402       .  A
C273        C276   1.400       .  A
C274        C280   1.387   1_554  A
C275        C283   1.381       .  A
C276        N277   1.366       .  A
C276        H289   1.082       .  S
N277        C278   1.344       .  A
N277       C1694   1.414       .  S
C278        H279   1.083       .  S
C280        N281   1.358   1_556  A
C280        H290   1.083       .  S
N281        C282   1.384       .  A
N281       C1689   1.449       .  S
C282        H288   1.082       .  S
C283        N284   1.349       .  A
C283        H285   1.083       .  S
N284        C286   1.385       .  A
N284       C1742   1.443       .  S
C286        H287   1.082       .  S
C291        C293   1.587       .  S
C291        C295   1.566       .  S
C291        C294   1.552       .  S
C291       C1714   1.544       .  S
C292        C296   1.519       .  S
C292        C298   1.540       .  S
C292        C297   1.558       .  S
C292       C1687   1.514       .  S
C293        C301   1.417       .  A
C293        C296   1.400       .  A
C294        C305   1.387       .  A
C294        C297   1.406       .  A
C295        C309   1.399       .  A
C295        C298   1.407       .  A
C296        C299   1.373       .  A
C297        C303   1.393       .  A
C298        C306   1.387       .  A
C299        N300   1.342       .  A
C299        H312   1.083       .  S
N300        C301   1.381       .  A
N300       C1685   1.429       .  S
C301        H302   1.082       .  S
C303        N304   1.366       .  A
C303        H313   1.082       .  S
N304        C305   1.361       .  A
N304       C1683   1.426       .  S
C305        H311   1.083       .  S
C306        N307   1.359       .  A
C306        H308   1.083       .  S
N307        C309   1.366       .  A
N307       C1702   1.427       .  S
C309        H310   1.083       .  S
C314        C316   1.544   1_556  S
C314        C318   1.563       .  S
C314        C317   1.549       .  S
C314       C1682   1.486       .  S
C315        C319   1.556       .  S
C315        C321   1.564   1_554  S
C315        C320   1.530       .  S
C315       C1731   1.487       .  S
C316        C324   1.395       .  A
C316        C319   1.392       .  A
C317        C328   1.392       .  A
C317        C320   1.393   1_556  A
C318        C332   1.406       .  A
C318        C321   1.408       .  A
C319        C322   1.406       .  A
C320        C326   1.374       .  A
C321        C329   1.406       .  A
C322        N323   1.368       .  A
C322        H335   1.082       .  S
N323        C324   1.357       .  A
N323       C1680   1.436       .  S
C324        H325   1.083       .  S
C326        N327   1.354       .  A
C326        H336   1.083       .  S
N327        C328   1.365   1_554  A
N327       C1678   1.413       .  S
C328        H334   1.082       .  S
C329        N330   1.366       .  A
C329        H331   1.083       .  S
N330        C332   1.367       .  A
N330       C1711   1.446       .  S
C332        H333   1.082       .  S
N337        C341   1.344       .  A
N337        C338   1.347       .  A
N337       C1666   1.402       .  S
C338        C339   1.378       .  A
C338       C1667   1.416       .  S
C339        C340   1.412       .  A
C339       C1669   1.491       .  S
C340        C341   1.413       .  A
C340       C1673   1.460       .  S
C341       C1671   1.485       .  S
N342        C346   1.343       .  A
N342        C343   1.343       .  A
N342       C1656   1.400       .  S
C343        C344   1.371       .  A
C343       C1653   1.414       .  S
C344        C345   1.386       .  A
C344       C1658   1.448       .  S
C345        C346   1.391       .  A
C345       C1661   1.468       .  S
C346       C1660   1.444       .  S
N347        C351   1.347       .  A
N347        C348   1.366       .  A
N347       C1642   1.402       .  S
C348        C349   1.395       .  A
C348       C1643   1.430       .  S
C349        C350   1.455       .  A
C349       C1647   1.568       .  S
C350        C351   1.452       .  A
C350       C1649   1.459       .  S
C351       C1645   1.569       .  S
N352        C356   1.342       .  A
N352        C353   1.344       .  A
N352       C1629   1.395       .  S
C353        C354   1.383       .  A
C353       C1631   1.431       .  S
C354        C355   1.394       .  A
C354       C1635   1.457       .  S
C355        C356   1.400       .  A
C355       C1637   1.467       .  S
C356       C1634   1.464       .  S
C357        C359   1.593       .  S
C357        C361   1.561       .  S
C357        C360   1.590       .  S
C357       C1646   1.598       .  S
C358        C362   1.516       .  S
C358        C364   1.538       .  S
C358        C363   1.563       .  S
C358       C1626   1.554       .  S
C359        C367   1.419       .  A
C359        C362   1.405       .  A
C360        C371   1.408       .  A
C360        C363   1.422       .  A
C361        C375   1.391       .  A
C361        C364   1.426       .  A
C362        C365   1.370       .  A
C363        C369   1.391       .  A
C364        C372   1.387       .  A
C365        N366   1.341       .  A
C365        H378   1.083       .  S
N366        C367   1.382       .  A
N366       C1627   1.429       .  S
C367        H368   1.082       .  S
C369        N370   1.364       .  A
C369        H379   1.082       .  S
N370        C371   1.377       .  A
N370       C1623   1.445       .  S
C371        H377   1.082       .  S
C372        N373   1.351       .  A
C372        H374   1.083       .  S
N373        C375   1.355       .  A
N373       C1633   1.415       .  S
C375        H376   1.081       .  S
C380        C382   1.534       .  S
C380        C384   1.557       .  S
C380        C383   1.550       .  S
C380       C1621   1.485       .  S
C381        C385   1.549       .  S
C381        C387   1.551   1_556  S
C381        C386   1.546   1_556  S
C381       C1636   1.486       .  S
C382        C390   1.386       .  A
C382        C385   1.385   1_554  A
C383        C394   1.390       .  A
C383        C386   1.397       .  A
C384        C398   1.401       .  A
C384        C387   1.407       .  A
C385        C388   1.399       .  A
C386        C392   1.385       .  A
C387        C395   1.394       .  A
C388        N389   1.368       .  A
C388        H401   1.082       .  S
N389        C390   1.355   1_556  A
N389       C1619   1.425       .  S
C390        H391   1.083       .  S
C392        N393   1.361       .  A
C392        H402   1.082   1_554  S
N393        C394   1.365       .  A
N393       C1617   1.423       .  S
C394        H400   1.082       .  S
C395        N396   1.358       .  A
C395        H397   1.083       .  S
N396        C398   1.365       .  A
N396       C1672   1.432       .  S
C398        H399   1.082       .  S
C403        C405   1.544       .  S
C403        C407   1.537       .  S
C403        C406   1.566       .  S
C403       C1648   1.606       .  S
C404        C408   1.540       .  S
C404        C410   1.572   1_556  S
C404        C409   1.583       .  S
C404       C1615   1.632   1_556  S
C405        C413   1.382       .  A
C405        C408   1.419       .  A
C406        C417   1.388       .  A
C406        C409   1.433       .  A
C407        C421   1.367   1_556  A
C407        C410   1.440   1_556  A
C408        C411   1.366       .  A
C409        C415   1.398       .  A
C410        C418   1.392       .  A
C411        N412   1.351       .  A
C411        H424   1.083       .  S
N412        C413   1.359       .  A
N412       C1613   1.397       .  S
C413        H414   1.082       .  S
C415        N416   1.370       .  A
C415        H425   1.082   1_556  S
N416        C417   1.363       .  A
N416       C1611   1.433       .  S
C417        H423   1.083       .  S
C418        N419   1.363       .  A
C418        H420   1.082       .  S
N419        C421   1.343       .  A
N419       C1659   1.403       .  S
C421        H422   1.084   1_554  S
C426        C428   1.559       .  S
C426        C430   1.537       .  S
C426        C429   1.545       .  S
C426       C1670   1.518       .  S
C427        C431   1.527       .  S
C427        C433   1.531       .  S
C427        C432   1.549       .  S
C427       C1608   1.501       .  S
C428        C436   1.403       .  A
C428        C431   1.411       .  A
C429        C440   1.382       .  A
C429        C432   1.405       .  A
C430        C444   1.379       .  A
C430        C433   1.408       .  A
C431        C434   1.374       .  A
C432        C438   1.383       .  A
C433        C441   1.388       .  A
C434        N435   1.340       .  A
C434        H447   1.084       .  S
N435        C436   1.365       .  A
N435       C1609   1.412       .  S
C436        H437   1.082       .  S
C438        N439   1.361       .  A
C438        H448   1.082       .  S
N439        C440   1.361       .  A
N439       C1605   1.414       .  S
C440        H446   1.083       .  S
C441        N442   1.354       .  A
C441        H443   1.083       .  S
N442        C444   1.345       .  A
N442       C1657   1.403       .  S
C444        H445   1.083       .  S
N449        C453   1.342       .  A
N449        C450   1.355       .  A
N449       C1596   1.413       .  S
C450        C451   1.392       .  A
C450       C1593   1.405       .  S
C451        C452   1.459       .  A
C451       C1599   1.571       .  S
C452        C453   1.462       .  A
C452       C1602   1.478       .  S
C453       C1597   1.544       .  S
N454        C458   1.338       .  A
N454        C455   1.334       .  A
N454       C1581   1.391       .  S
C455        C456   1.363       .  A
C455       C1584   1.420       .  S
C456        C457   1.397       .  A
C456       C1587   1.442       .  S
C457        C458   1.393       .  A
C457       C1589   1.460       .  S
C458       C1585   1.447       .  S
N459        C463   1.338       .  A
N459        C460   1.349       .  A
N459       C1571   1.406       .  S
C460        C461   1.395       .  A
C460       C1570   1.427       .  S
C461        C462   1.416       .  A
C461       C1573   1.488       .  S
C462        C463   1.407       .  A
C462       C1577   1.474       .  S
C463       C1575   1.472       .  S
N464        C468   1.349       .  A
N464        C465   1.350       .  A
N464       C1557   1.395       .  S
C465        C466   1.377       .  A
C465       C1560   1.437       .  S
C466        C467   1.388       .  A
C466       C1563   1.448       .  S
C467        C468   1.383       .  A
C467       C1565   1.460       .  S
C468       C1561   1.457       .  S
C469        C471   1.563       .  S
C469        C473   1.552       .  S
C469        C472   1.535       .  S
C469       C1574   1.519       .  S
C470        C474   1.521       .  S
C470        C476   1.532       .  S
C470        C475   1.549       .  S
C470       C1553   1.502       .  S
C471        C479   1.402       .  A
C471        C474   1.407       .  A
C472        C483   1.376       .  A
C472        C475   1.402       .  A
C473        C487   1.390       .  A
C473        C476   1.411       .  A
C474        C477   1.371       .  A
C475        C481   1.385       .  A
C476        C484   1.380       .  A
C477        N478   1.340       .  A
C477        H490   1.084       .  S
N478        C479   1.367       .  A
N478       C1555   1.411       .  S
C479        H480   1.082       .  S
C481        N482   1.362       .  A
C481        H491   1.082       .  S
N482        C483   1.356       .  A
N482       C1551   1.410       .  S
C483        H489   1.083       .  S
C484        N485   1.352       .  A
C484        H486   1.083       .  S
N485        C487   1.357       .  A
N485       C1562   1.410       .  S
C487        H488   1.083       .  S
C492        C494   1.546       .  S
C492        C496   1.533       .  S
C492        C495   1.578       .  S
C492       C1600   1.608       .  S
C493        C497   1.535       .  S
C493        C499   1.565   1_545  S
C493        C498   1.566       .  S
C493       C1547   1.609   1_545  S
C494        C502   1.389       .  A
C494        C497   1.419       .  A
C495        C506   1.397       .  A
C495        C498   1.445       .  A
C496        C510   1.367   1_545  A
C496        C499   1.440   1_545  A
C497        C500   1.371       .  A
C498        C504   1.393       .  A
C499        C507   1.399       .  A
C500        N501   1.345       .  A
C500        H513   1.084       .  S
N501        C502   1.358       .  A
N501       C1550   1.401       .  S
C502        H503   1.083       .  S
C504        N505   1.356       .  A
C504        H514   1.083   1_545  S
N505        C506   1.362       .  A
N505       C1546   1.428       .  S
C506        H512   1.083       .  S
C507        N508   1.359       .  A
C507        H509   1.082       .  S
N508        C510   1.337       .  A
N508       C1564   1.403       .  S
C510        H511   1.084   1_565  S
C515        C517   1.530   1_545  S
C515        C519   1.541       .  S
C515        C518   1.549   1_545  S
C515       C1588   1.466       .  S
C516        C520   1.554       .  S
C516        C522   1.526       .  S
C516        C521   1.576       .  S
C516       C1541   1.483       .  S
C517        C525   1.378       .  A
C517        C520   1.388       .  A
C518        C529   1.390   1_565  A
C518        C521   1.403       .  A
C519        C533   1.395       .  A
C519        C522   1.381   1_545  A
C520        C523   1.399       .  A
C521        C527   1.405       .  A
C522        C530   1.376       .  A
C523        N524   1.369       .  A
C523        H536   1.082       .  S
N524        C525   1.352       .  A
N524       C1576   1.420       .  S
C525        H526   1.083       .  S
C527        N528   1.374       .  A
C527        H537   1.082       .  S
N528        C529   1.364   1_565  A
N528       C1539   1.440       .  S
C529        H535   1.082       .  S
C530        N531   1.347   1_565  A
C530        H532   1.083       .  S
N531        C533   1.366       .  A
N531       C1544   1.411       .  S
C533        H534   1.082       .  S
C538        C540   1.594       .  S
C538        C542   1.543       .  S
C538        C541   1.588       .  S
C538       C1598   1.578       .  S
C539        C543   1.516       .  S
C539        C545   1.540       .  S
C539        C544   1.562       .  S
C539       C1535   1.543       .  S
C540        C548   1.418       .  A
C540        C543   1.407       .  A
C541        C552   1.406       .  A
C541        C544   1.419       .  A
C542        C556   1.381       .  A
C542        C545   1.408       .  A
C543        C546   1.367       .  A
C544        C550   1.395       .  A
C545        C553   1.383       .  A
C546        N547   1.339       .  A
C546        H559   1.083       .  S
N547        C548   1.383       .  A
N547       C1538   1.427       .  S
C548        H549   1.082       .  S
C550        N551   1.366       .  A
C550        H560   1.083       .  S
N551        C552   1.375       .  A
N551       C1534   1.445       .  S
C552        H558   1.082       .  S
C553        N554   1.359       .  A
C553        H555   1.083       .  S
N554        C556   1.352       .  A
N554       C1586   1.406       .  S
C556        H557   1.083       .  S
Zn561       O565   1.922       .  S
Zn561       O566   2.019       .  S
Zn561       O570   1.975       .  S
Zn561       O577   2.017       .  S
Zn562       O565   1.917       .  S
Zn562       O567   2.022       .  S
Zn562       O569   2.008       .  S
Zn562       O573   1.970       .  S
Zn563       O565   1.913       .  S
Zn563       O568   1.928       .  S
Zn563       O571   1.945       .  S
Zn563       O574   1.968       .  S
Zn564       O565   1.918       .  S
Zn564       O572   2.003       .  S
Zn564       O575   1.982       .  S
Zn564       O576   2.003       .  S
O566        C578   1.273       .  A
O567        C579   1.270       .  A
O568        C580   1.262       .  A
O569        C578   1.273       .  A
O570        C580   1.269       .  A
O571        C579   1.261       .  A
O572        C581   1.271       .  A
O573        C582   1.270       .  A
O574        C581   1.263       .  A
O575        C582   1.269       .  A
O576        C583   1.271       .  A
O577        C583   1.272       .  A
C578       C1572   1.431       .  S
C579       C1644   1.419       .  S
C580       C1526   1.394       .  S
C581       C1531   1.418       .  S
C582       C1527   1.409       .  S
C583       C1529   1.430       .  S
Zn584       O588   1.866       .  S
Zn584       O589   1.928       .  S
Zn584       O593   1.965       .  S
Zn584       O600   1.952       .  S
Zn585       O588   1.876       .  S
Zn585       O590   1.937       .  S
Zn585       O592   1.965       .  S
Zn585       O596   1.970       .  S
Zn586       O588   1.895       .  S
Zn586       O591   2.038       .  S
Zn586       O594   2.044       .  S
Zn586       O597   1.980       .  S
Zn587       O588   1.872       .  S
Zn587       O595   1.969       .  S
Zn587       O598   2.020       .  S
Zn587       O599   1.999       .  S
O589        C601   1.264       .  A
O590        C602   1.263       .  A
O591        C603   1.274       .  A
O592        C601   1.270       .  A
O593        C603   1.262       .  A
O594        C602   1.279       .  A
O595        C604   1.272       .  A
O596        C605   1.267       .  A
O597        C604   1.274       .  A
O598        C605   1.272       .  A
O599        C606   1.274       .  A
O600        C606   1.265       .  A
C601       C1521   1.390       .  S
C602       C1632   1.419       .  S
C603       C1768   1.428       .  S
C604       C1583   1.405       .  S
C605       C1523   1.423       .  S
C606       C1520   1.409       .  S
N607        C611   1.341       .  A
N607        C608   1.360   1_565  A
N607       C1540   1.447       .  S
C608        C609   1.418       .  A
C608       C1519   1.418       .  S
C609        C610   1.456   1_545  A
C609       C1765   1.542   1_655  S
C610        C611   1.402       .  A
C610       C1517   1.483       .  S
C611       C1530   1.443       .  S
N612        C616   1.346       .  A
N612        C613   1.352       .  A
N612       C1761   1.442       .  S
C613        C614   1.392       .  A
C613       C1522   1.402   1_455  S
C614        C615   1.396       .  A
C614       C1620   1.473       .  S
C615        C616   1.391       .  A
C615       C1681   1.458       .  S
C616       C1515   1.413       .  S
Zn617       O621   1.901       .  S
Zn617       O622   1.909       .  S
Zn617       O626   2.012       .  S
Zn617       O633   1.982       .  S
Zn618       O621   1.901       .  S
Zn618       O623   1.984       .  S
Zn618       O625   1.979       .  S
Zn618       O629   2.024       .  S
Zn619       O621   1.874       .  S
Zn619       O624   1.988       .  S
Zn619       O627   1.937       .  S
Zn619       O630   1.961       .  S
Zn620       O621   1.873       .  S
Zn620       O628   1.960       .  S
Zn620       O631   1.981       .  S
Zn620       O632   1.945       .  S
O622        C634   1.260       .  A
O623        C635   1.270       .  A
O624        C636   1.266       .  A
O625        C634   1.269       .  A
O626        C636   1.271       .  A
O627        C635   1.265       .  A
O628        C637   1.268       .  A
O629        C638   1.273       .  A
O630        C637   1.269       .  A
O631        C638   1.266       .  A
O632        C639   1.265       .  A
O633        C639   1.272       .  A
C634       C1594   1.392       .  S
C635       C1810   1.398       .  S
C636       C1512   1.429       .  S
C637       C1516   1.399       .  S
C638       C1708   1.428       .  S
C639       C1513   1.402       .  S
N640        C644   1.343       .  A
N640        C641   1.353   1_545  A
N640       C1545   1.433       .  S
C641        C642   1.390       .  A
C641       C1509   1.413       .  S
C642        C643   1.388   1_565  A
C642       C1507   1.487       .  S
C643        C644   1.400       .  A
C643       C1763   1.424       .  S
C644       C1511   1.435       .  S
Zn645       O649   1.940       .  S
Zn645       O650   1.937       .  S
Zn645       O654   1.941       .  S
Zn645       O661   1.944       .  S
Zn646       O649   1.910       .  S
Zn646       O651   2.027       .  S
Zn646       O653   1.958       .  S
Zn646       O657   1.989       .  S
Zn647       O649   1.910       .  S
Zn647       O652   1.987       .  S
Zn647       O655   1.965       .  S
Zn647       O658   1.993       .  S
Zn648       O649   1.900       .  S
Zn648       O656   1.979       .  S
Zn648       O659   2.013       .  S
Zn648       O660   1.951       .  S
O650        C662   1.260       .  A
O651        C663   1.273       .  A
O652        C664   1.266       .  A
O653        C662   1.269       .  A
O654        C664   1.263       .  A
O655        C663   1.268       .  A
O656        C665   1.269       .  A
O657        C666   1.268       .  A
O658        C665   1.270       .  A
O659        C666   1.272       .  A
O660        C667   1.266       .  A
O661        C667   1.259       .  A
C662       C1510   1.392       .  S
C663       C1559   1.422       .  S
C664       C1506   1.405       .  S
C665       C1696   1.416       .  S
C666       C1502   1.426       .  S
C667       C1503   1.396       .  S
N668        C672   1.345       .  A
N668        C669   1.344       .  A
N668       C1499   1.421       .  S
C669        C670   1.378       .  A
C669       C1504   1.412       .  S
C670        C671   1.388       .  A
C670       C1693   1.460       .  S
C671        C672   1.394       .  A
C671       C1614   1.435       .  S
C672       C1532   1.426   1_455  S
N673        C677   1.365   1_554  A
N673        C674   1.341       .  A
N673       C1690   1.454       .  S
C674        C675   1.410       .  A
C674       C1497   1.450       .  S
C675        C676   1.483       .  A
C675       C1825   1.506       .  S
C676        C677   1.418   1_554  A
C676       C1548   1.568   1_554  S
C677       C1505   1.416       .  S
Zn678       O682   1.940       .  S
Zn678       O683   2.005       .  S
Zn678       O687   1.998       .  S
Zn678       O694   2.038       .  S
Zn679       O682   1.951       .  S
Zn679       O684   2.003       .  S
Zn679       O686   2.018       .  S
Zn679       O690   1.995       .  S
Zn680       O682   1.964       .  S
Zn680       O685   2.051       .  S
Zn680       O688   2.075       .  S
Zn680       O691   1.993       .  S
Zn681       O682   1.956       .  S
Zn681       O689   2.059       .  S
Zn681       O692   2.018       .  S
Zn681       O693   2.120       .  S
O683        C695   1.272       .  A
O684        C696   1.267       .  A
O685        C697   1.279       .  A
O686        C695   1.274       .  A
O687        C697   1.271       .  A
O688        C696   1.278       .  A
O689        C698   1.280       .  A
O690        C699   1.271       .  A
O691        C698   1.270       .  A
O692        C699   1.274       .  A
O693        C700   1.285       .  A
O694        C700   1.274       .  A
C695       C1493   1.431       .  S
C696       C1738   1.452       .  S
C697       C1498   1.436       .  S
C698       C1852   1.438       .  S
C699       C1491   1.428       .  S
C700       C1495   1.470       .  S
N701        C705   1.340       .  A
N701        C702   1.367       .  A
N701       C1488   1.463       .  S
C702        C703   1.426       .  A
C702       C1490   1.413   1_455  S
C703        C704   1.497       .  A
C703       C1616   1.592   1_455  S
C704        C705   1.412       .  A
C704       C1691   1.522       .  S
C705       C1494   1.445       .  S
Zn706       O710   1.877       .  S
Zn706       O711   1.973       .  S
Zn706       O715   1.949       .  S
Zn706       O722   1.966       .  S
Zn707       O710   1.880       .  S
Zn707       O712   1.945       .  S
Zn707       O714   1.947       .  S
Zn707       O718   1.964       .  S
Zn708       O710   1.906       .  S
Zn708       O713   2.033       .  S
Zn708       O716   2.047       .  S
Zn708       O719   2.013       .  S
Zn709       O710   1.867       .  S
Zn709       O717   1.959       .  S
Zn709       O720   1.976       .  S
Zn709       O721   1.960       .  S
O711        C723   1.267       .  A
O712        C724   1.264       .  A
O713        C725   1.276       .  A
O714        C723   1.266       .  A
O715        C725   1.264       .  A
O716        C724   1.280       .  A
O717        C726   1.267       .  A
O718        C727   1.266       .  A
O719        C726   1.275       .  A
O720        C727   1.268       .  A
O721        C728   1.268       .  A
O722        C728   1.267       .  A
C723       C1484   1.401       .  S
C724       C1840   1.421       .  S
C725       C1655   1.420       .  S
C726       C1481   1.415       .  S
C727       C1486   1.407       .  S
C728       C1489   1.401       .  S
N729        C733   1.339       .  A
N729        C730   1.358       .  A
N729       C1612   1.439       .  S
C730        C731   1.409       .  A
C730       C1483   1.409   1_556  S
C731        C732   1.418       .  A
C731       C1838   1.506   1_556  S
C732        C733   1.385       .  A
C732       C1542   1.455       .  S
C733       C1528   1.424       .  S
Zn734       O738   1.852       .  S
Zn734       O739   1.956       .  S
Zn734       O743   1.966       .  S
Zn734       O750   1.973       .  S
Zn735       O738   1.889       .  S
Zn735       O740   1.955       .  S
Zn735       O742   1.987       .  S
Zn735       O746   1.989       .  S
Zn736       O738   1.896       .  S
Zn736       O741   2.050       .  S
Zn736       O744   1.983       .  S
Zn736       O747   2.034       .  S
Zn737       O738   1.873       .  S
Zn737       O745   1.964       .  S
Zn737       O748   1.947       .  S
Zn737       O749   1.992       .  S
O739        C751   1.266       .  A
O740        C752   1.267       .  A
O741        C753   1.281       .  A
O742        C751   1.268       .  A
O743        C753   1.269       .  A
O744        C752   1.272       .  A
O745        C754   1.269       .  A
O746        C755   1.268       .  A
O747        C754   1.276       .  A
O748        C755   1.263       .  A
O749        C756   1.275       .  A
O750        C756   1.270       .  A
C751       C1477   1.409       .  S
C752       C1480   1.404       .  S
C753       C1798   1.427       .  S
C754       C1726   1.430       .  S
C755       C1475   1.409       .  S
C756       C1870   1.415       .  S
N757        C761   1.344       .  A
N757        C758   1.353   1_655  A
N757       C1750   1.438       .  S
C758        C759   1.401       .  A
C758       C1479   1.411       .  S
C759        C760   1.409   1_455  A
C759       C1679   1.488       .  S
C760        C761   1.393       .  A
C760       C1622   1.457       .  S
C761       C1474   1.425       .  S
N762        C766   1.337       .  A
N762        C763   1.372   1_565  A
N762       C1821   1.447       .  S
C763        C764   1.428       .  A
C763       C1478   1.418       .  S
C764        C765   1.498   1_545  A
C764       C1752   1.606       .  S
C765        C766   1.413       .  A
C765       C1471   1.491       .  S
C766       C1496   1.486       .  S
N767        C771   1.345       .  A
N767        C768   1.343       .  A
N767       C1677   1.420       .  S
C768        C769   1.384       .  A
C768       C1476   1.421       .  S
C769        C770   1.382       .  A
C769       C1823   1.439       .  S
C770        C771   1.381       .  A
C770       C1549   1.443       .  S
C771       C1514   1.412   1_554  S
N772        C776   1.344   1_565  A
N772        C773   1.350       .  A
N772       C1834   1.422       .  S
C773        C774   1.388       .  A
C773       C1485   1.421       .  S
C774        C775   1.396       .  A
C774       C1467   1.468       .  S
C775        C776   1.391   1_565  A
C775       C1753   1.438   1_565  S
C776       C1469   1.433       .  S
Zn777       O781   1.909       .  S
Zn777       O782   1.996       .  S
Zn777       O786   1.992       .  S
Zn777       O793   1.950       .  S
Zn778       O781   1.898       .  S
Zn778       O783   1.959       .  S
Zn778       O785   2.001       .  S
Zn778       O789   1.953       .  S
Zn779       O781   1.912       .  S
Zn779       O784   1.966       .  S
Zn779       O787   1.951       .  S
Zn779       O790   1.989       .  S
Zn780       O781   1.919       .  S
Zn780       O788   2.002       .  S
Zn780       O791   2.003       .  S
Zn780       O792   1.961       .  S
O782        C794   1.270       .  A
O783        C795   1.268       .  A
O784        C796   1.267       .  A
O785        C794   1.269       .  A
O786        C796   1.269       .  A
O787        C795   1.267       .  A
O788        C797   1.270       .  A
O789        C798   1.264       .  A
O790        C797   1.266       .  A
O791        C798   1.269       .  A
O792        C799   1.268       .  A
O793        C799   1.265       .  A
C794       C1665   1.426       .  S
C795       C1780   1.396       .  S
C796       C1881   1.413       .  S
C797       C1470   1.423       .  S
C798       C1473   1.414       .  S
C799       C1465   1.396       .  S
N800        C804   1.348       .  A
N800        C801   1.346   1_554  A
N800       C1618   1.428       .  S
C801        C802   1.393       .  A
C801       C1524   1.434       .  S
C802        C803   1.405   1_556  A
C802       C1543   1.451       .  S
C803        C804   1.387       .  A
C803       C1836   1.477       .  S
C804       C1466   1.407       .  S
N805        C809   1.347       .  A
N805        C806   1.358       .  A
N805       C1455   1.389       .  S
C806        C807   1.373       .  A
C806       C1492   1.434       .  S
C807        C808   1.438       .  A
C807       C1459   1.527       .  S
C808        C809   1.423       .  A
C808       C1461   1.461       .  S
C809       C1458   1.525       .  S
N810        C814   1.344       .  A
N810        C811   1.349       .  A
N810       C1445   1.402       .  S
C811        C812   1.396       .  A
C811       C1447   1.453       .  S
C812        C813   1.400       .  A
C812       C1451   1.483       .  S
C813        C814   1.379       .  A
C813       C1449   1.447       .  S
C814       C1501   1.437       .  S
N815        C819   1.342       .  A
N815        C816   1.356       .  A
N815       C1525   1.380       .  S
C816        C817   1.376       .  A
C816       C1436   1.434       .  S
C817        C818   1.430       .  A
C817       C1438   1.514       .  S
C818        C819   1.420       .  A
C818       C1441   1.444       .  S
C819       C1439   1.539       .  S
N820        C824   1.344       .  A
N820        C821   1.345       .  A
N820       C1426   1.393       .  S
C821        C822   1.371       .  A
C821       C1482   1.430       .  S
C822        C823   1.396       .  A
C822       C1429   1.453       .  S
C823        C824   1.393       .  A
C823       C1431   1.463       .  S
C824       C1427   1.461       .  S
C825        C827   1.589       .  S
C825        C829   1.551       .  S
C825        C828   1.555       .  S
C825       C1437   1.544       .  S
C826        C830   1.517       .  S
C826        C832   1.536       .  S
C826        C831   1.557       .  S
C826       C1422   1.513       .  S
C827        C835   1.418       .  A
C827        C830   1.403       .  A
C828        C839   1.388       .  A
C828        C831   1.408       .  A
C829        C843   1.386       .  A
C829        C832   1.405       .  A
C830        C833   1.368       .  A
C831        C837   1.392       .  A
C832        C840   1.385       .  A
C833        N834   1.338       .  A
C833        H846   1.083       .  S
N834        C835   1.381       .  A
N834       C1424   1.425       .  S
C835        H836   1.082       .  S
C837        N838   1.366       .  A
C837        H847   1.082       .  S
N838        C839   1.363       .  A
N838       C1420   1.426       .  S
C839        H845   1.082       .  S
C840        N841   1.359       .  A
C840        H842   1.083       .  S
N841        C843   1.357       .  A
N841       C1428   1.414       .  S
C843        H844   1.083       .  S
C848        C850   1.543       .  S
C848        C852   1.541   1_455  S
C848        C851   1.539       .  S
C848       C1430   1.477   1_455  S
C849        C853   1.597       .  S
C849        C855   1.538       .  S
C849        C854   1.608       .  S
C849       C1472   1.531       .  S
C850        C858   1.391       .  A
C850        C853   1.395       .  A
C851        C862   1.390       .  A
C851        C854   1.403       .  A
C852        C866   1.402       .  A
C852        C855   1.387   1_655  A
C853        C856   1.427       .  A
C854        C860   1.426       .  A
C855        C863   1.386   1_455  A
C856        N857   1.386       .  A
C856        H869   1.082       .  S
N857        C858   1.359       .  A
N857       C1460   1.458       .  S
C858        H859   1.080       .  S
C860        N861   1.387       .  A
C860        H870   1.082       .  S
N861        C862   1.360       .  A
N861       C1487   1.457       .  S
C862        H868   1.083       .  S
C863        N864   1.346       .  A
C863        H865   1.083       .  S
N864        C866   1.365       .  A
N864       C1468   1.420       .  S
C866        H867   1.082       .  S
C871        C873   1.557       .  S
C871        C875   1.605       .  S
C871        C874   1.560       .  S
C871       C1518   1.518   1_455  S
C872        C876   1.542       .  S
C872        C878   1.548       .  S
C872        C877   1.522       .  S
C872       C1450   1.474       .  S
C873        C881   1.401       .  A
C873        C876   1.401       .  A
C874        C885   1.399       .  A
C874        C877   1.394       .  A
C875        C889   1.436   1_455  A
C875        C878   1.404       .  A
C876        C879   1.406       .  A
C877        C883   1.369       .  A
C878        C886   1.401       .  A
C879        N880   1.361       .  A
C879        H892   1.083       .  S
N880        C881   1.353       .  A
N880       C1508   1.433       .  S
C881        H882   1.083       .  S
C883        N884   1.350       .  A
C883        H893   1.083       .  S
N884        C885   1.370       .  A
N884       C1500   1.415       .  S
C885        H891   1.082   1_455  S
C886        N887   1.357   1_455  A
C886        H888   1.079       .  S
N887        C889   1.388       .  A
N887       C1440   1.469       .  S
C889        H890   1.082       .  S
C894        C896   1.581       .  S
C894        C898   1.549       .  S
C894        C897   1.559       .  S
C894       C1457   1.555       .  S
C895        C899   1.516       .  S
C895        C901   1.544       .  S
C895        C900   1.553       .  S
C895       C1416   1.536       .  S
C896        C904   1.411       .  A
C896        C899   1.403       .  A
C897        C908   1.389       .  A
C897        C900   1.411       .  A
C898        C912   1.383       .  A
C898        C901   1.420       .  A
C899        C902   1.365       .  A
C900        C906   1.387       .  A
C901        C909   1.386       .  A
C902        N903   1.339       .  A
C902        H915   1.084       .  S
N903        C904   1.378       .  A
N903       C1418   1.419       .  S
C904        H905   1.082       .  S
C906        N907   1.363       .  A
C906        H916   1.082       .  S
N907        C908   1.364       .  A
N907       C1414   1.424       .  S
C908        H914   1.082       .  S
C909        N910   1.356       .  A
C909        H911   1.083       .  S
N910        C912   1.351       .  A
N910       C1448   1.409       .  S
C912        H913   1.083       .  S
N917        C921   1.351       .  A
N917        C918   1.343       .  A
N917       C1791   1.436       .  S
C918        C919   1.389       .  A
C918       C1409   1.420       .  S
C919        C920   1.422       .  A
C919       C1537   1.474       .  S
C920        C921   1.400       .  A
C920       C1865   1.488       .  S
C921       C1411   1.416       .  S
N922        C926   1.354       .  A
N922        C923   1.342       .  A
N922       C1720   1.430       .  S
C923        C924   1.388       .  A
C923       C1406   1.434       .  S
C924        C925   1.412       .  A
C924       C1417   1.465       .  S
C925        C926   1.398       .  A
C925       C1794   1.493       .  S
C926       C1407   1.420       .  S
N927        C931   1.354       .  A
N927        C928   1.343       .  A
N927       C1863   1.438       .  S
C928        C929   1.400       .  A
C928       C1401   1.441       .  S
C929        C930   1.416       .  A
C929       C1610   1.452       .  S
C930        C931   1.396       .  A
C930       C1722   1.505       .  S
C931       C1404   1.400       .  S
Zn932       O936   1.891       .  S
Zn932       O937   2.012       .  S
Zn932       O941   1.938       .  S
Zn932       O948   1.972       .  S
Zn933       O936   1.878       .  S
Zn933       O938   1.972       .  S
Zn933       O940   1.928       .  S
Zn933       O944   1.951       .  S
Zn934       O936   1.897       .  S
Zn934       O939   1.940       .  S
Zn934       O942   1.968       .  S
Zn934       O945   1.928       .  S
Zn935       O936   1.908       .  S
Zn935       O943   2.001       .  S
Zn935       O946   1.968       .  S
Zn935       O947   1.997       .  S
O937        C949   1.269       .  A
O938        C950   1.262       .  A
O939        C951   1.264       .  A
O940        C949   1.264       .  A
O941        C951   1.266       .  A
O942        C950   1.264       .  A
O943        C952   1.267       .  A
O944        C953   1.267       .  A
O945        C952   1.261       .  A
O946        C953   1.271       .  A
O947        C954   1.272       .  A
O948        C954   1.269       .  A
C949       C1871   1.409       .  S
C950       C1412   1.407       .  S
C951       C1403   1.389       .  S
C952       C1408   1.408       .  S
C953       C1800   1.399       .  S
C954       C1728   1.415       .  S
Zn955       O959   1.927       .  S
Zn955       O960   2.005       .  S
Zn955       O964   1.935       .  S
Zn955       O971   1.974       .  S
Zn956       O959   1.936       .  S
Zn956       O961   1.949       .  S
Zn956       O963   2.008       .  S
Zn956       O967   1.949       .  S
Zn957       O959   1.954       .  S
Zn957       O962   1.986       .  S
Zn957       O965   1.990       .  S
Zn957       O968   2.006       .  S
Zn958       O959   1.944       .  S
Zn958       O966   2.018       .  S
Zn958       O969   2.005       .  S
Zn958       O970   2.037       .  S
O960        C972   1.267       .  A
O961        C973   1.262       .  A
O962        C974   1.269       .  A
O963        C972   1.269       .  A
O964        C974   1.262       .  A
O965        C973   1.268       .  A
O966        C975   1.270       .  A
O967        C976   1.265       .  A
O968        C975   1.268       .  A
O969        C976   1.274       .  A
O970        C977   1.276       .  A
O971        C977   1.268       .  A
C972       C1402   1.432       .  S
C973       C1884   1.409       .  S
C974       C1668   1.403       .  S
C975       C1782   1.433       .  S
C976       C1397   1.411       .  S
C977       C1400   1.429       .  S
Zn978       O982   1.919       .  S
Zn978       O983   1.932       .  S
Zn978       O987   1.899       .  S
Zn978       O994   1.950       .  S
Zn979       O982   1.922       .  S
Zn979       O984   1.993       .  S
Zn979       O986   2.000       .  S
Zn979       O990   1.981       .  S
Zn980       O982   1.927       .  S
Zn980       O985   1.976       .  S
Zn980       O988   1.991       .  S
Zn980       O991   2.009       .  S
Zn981       O982   1.919       .  S
Zn981       O989   1.968       .  S
Zn981       O992   1.957       .  S
Zn981       O993   1.990       .  S
O983        C995   1.259       .  A
O984        C996   1.269       .  A
O985        C997   1.267       .  A
O986        C995   1.267       .  A
O987        C997   1.257       .  A
O988        C996   1.270       .  A
O989        C998   1.267       .  A
O990        C999   1.271       .  A
O991        C998   1.271       .  A
O992        C999   1.267       .  A
O993       C1000   1.266       .  A
O994       C1000   1.260       .  A
C995       C1456   1.409       .  S
C996       C1405   1.420       .  S
C997       C1739   1.390       .  S
C998       C1396   1.418       .  S
C999       C1393   1.407       .  S
C1000      C1854   1.412       .  S
Zn1001     O1005   1.947       .  S
Zn1001     O1006   1.971       .  S
Zn1001     O1010   2.042       .  S
Zn1001     O1017   1.985       .  S
Zn1002     O1005   1.951       .  S
Zn1002     O1007   2.004       .  S
Zn1002     O1009   1.980       .  S
Zn1002     O1013   2.016       .  S
Zn1003     O1005   1.939       .  S
Zn1003     O1008   2.025       .  S
Zn1003     O1011   1.994       .  S
Zn1003     O1014   1.935       .  S
Zn1004     O1005   1.963       .  S
Zn1004     O1012   1.990       .  S
Zn1004     O1015   2.031       .  S
Zn1004     O1016   2.021       .  S
O1006      C1018   1.270       .  A
O1007      C1019   1.271       .  A
O1008      C1020   1.271       .  A
O1009      C1018   1.270       .  A
O1010      C1020   1.272       .  A
O1011      C1019   1.269       .  A
O1012      C1021   1.271       .  A
O1013      C1022   1.268       .  A
O1014      C1021   1.263       .  A
O1015      C1022   1.271       .  A
O1016      C1023   1.272       .  A
O1017      C1023   1.267       .  A
C1018      C1410   1.408       .  S
C1019      C1391   1.426       .  S
C1020      C1390   1.447       .  S
C1021      C1710   1.402       .  S
C1022      C1595   1.440       .  S
C1023      C1812   1.427       .  S
N1024      C1028   1.347       .  A
N1024      C1025   1.342       .  A
N1024      C1828   1.422       .  S
C1025      C1026   1.384       .  A
C1025      C1395   1.430       .  S
C1026      C1027   1.401       .  A
C1026      C1724   1.446       .  S
C1027      C1028   1.388       .  A
C1027      C1607   1.470       .  S
C1028      C1387   1.411       .  S
N1029      C1033   1.349       .  A
N1029      C1030   1.346       .  A
N1029      C1419   1.432       .  S
C1030      C1031   1.400       .  A
C1030      C1385   1.436       .  S
C1031      C1032   1.405       .  A
C1031      C1556   1.453       .  S
C1032      C1033   1.386       .  A
C1032      C1832   1.486       .  S
C1033      C1384   1.407       .  S
N1034      C1038   1.347       .  A
N1034      C1035   1.341       .  A
N1034      C1606   1.418       .  S
C1035      C1036   1.390       .  A
C1035      C1399   1.441       .  S
C1036      C1037   1.418       .  A
C1036      C1758   1.454       .  S
C1037      C1038   1.387       .  A
C1037      C1421   1.480       .  S
C1038      C1381   1.419       .  S
Zn1039     O1043   1.904       .  S
Zn1039     O1044   1.991       .  S
Zn1039     O1048   2.008       .  S
Zn1039     O1055   1.987       .  S
Zn1040     O1043   1.896       .  S
Zn1040     O1045   1.966       .  S
Zn1040     O1047   1.958       .  S
Zn1040     O1051   1.992       .  S
Zn1041     O1043   1.872       .  S
Zn1041     O1046   1.931       .  S
Zn1041     O1049   1.932       .  S
Zn1041     O1052   1.965       .  S
Zn1042     O1043   1.870       .  S
Zn1042     O1050   1.953       .  S
Zn1042     O1053   1.936       .  S
Zn1042     O1054   1.922       .  S
O1044      C1056   1.271       .  A
O1045      C1057   1.268       .  A
O1046      C1058   1.262       .  A
O1047      C1056   1.265       .  A
O1048      C1058   1.273       .  A
O1049      C1057   1.265       .  A
O1050      C1059   1.263       .  A
O1051      C1060   1.268       .  A
O1052      C1059   1.266       .  A
O1053      C1060   1.262       .  A
O1054      C1061   1.261       .  A
O1055      C1061   1.271       .  A
C1056      C1425   1.411       .  S
C1057      C1383   1.392       .  S
C1058      C1842   1.407       .  S
C1059      C1388   1.401       .  S
C1060      C1382   1.405       .  S
C1061      C1654   1.398       .  S
N1062      C1066   1.340       .  A
N1062      C1063   1.354       .  A
N1062      C1755   1.444       .  S
C1063      C1064   1.406       .  A
C1063      C1379   1.414       .  S
C1064      C1065   1.435       .  A
C1064      C1536   1.509       .  S
C1065      C1066   1.397       .  A
C1065      C1868   1.478       .  S
C1066      C1398   1.420       .  S
N1067      C1071   1.364       .  A
N1067      C1068   1.344       .  A
N1067      C1624   1.450       .  S
C1068      C1069   1.398       .  A
C1068      C1378   1.434       .  S
C1069      C1070   1.427       .  A
C1069      C1423   1.471       .  S
C1070      C1071   1.410       .  A
C1070      C1760   1.520       .  S
C1071      C1376   1.414       .  S
N1072      C1076   1.361       .  A
N1072      C1073   1.347       .  A
N1072      C1533   1.450       .  S
C1073      C1074   1.402       .  A
C1073      C1392   1.436       .  S
C1074      C1075   1.428       .  A
C1074      C1686   1.476       .  S
C1075      C1076   1.407       .  A
C1075      C1625   1.519       .  S
C1076      C1374   1.412       .  S
Zn1077     O1081   1.891       .  S
Zn1077     O1082   1.986       .  S
Zn1077     O1086   1.943       .  S
Zn1077     O1093   1.936       .  S
Zn1078     O1081   1.870       .  S
Zn1078     O1083   1.962       .  S
Zn1078     O1085   1.923       .  S
Zn1078     O1089   1.937       .  S
Zn1079     O1081   1.891       .  S
Zn1079     O1084   1.984       .  S
Zn1079     O1087   1.974       .  S
Zn1079     O1090   1.974       .  S
Zn1080     O1081   1.905       .  S
Zn1080     O1088   1.989       .  S
Zn1080     O1091   2.003       .  S
Zn1080     O1092   1.982       .  S
O1082      C1094   1.266       .  A
O1083      C1095   1.265       .  A
O1084      C1096   1.267       .  A
O1085      C1094   1.262       .  A
O1086      C1096   1.264       .  A
O1087      C1095   1.270       .  A
O1088      C1097   1.272       .  A
O1089      C1098   1.263       .  A
O1090      C1097   1.268       .  A
O1091      C1098   1.273       .  A
O1092      C1099   1.268       .  A
O1093      C1099   1.264       .  A
C1094      C1380   1.400       .  S
C1095      C1769   1.405       .  S
C1096      C1375   1.404       .  S
C1097      C1630   1.415       .  S
C1098      C1582   1.407       .  S
C1099      C1373   1.400       .  S
N1100      C1104   1.353       .  A
N1100      C1101   1.347       .  A
N1100      C1684   1.431       .  S
C1101      C1102   1.404       .  A
C1101      C1389   1.455       .  S
C1102      C1103   1.424       .  A
C1102      C1795   1.458       .  S
C1103      C1104   1.392       .  A
C1103      C1415   1.503       .  S
C1104      C1372   1.412       .  S
N1105      C1109   1.344       .  A
N1105      C1106   1.345       .  A
N1105      C1552   1.416       .  S
C1106      C1107   1.394       .  A
C1106      C1369   1.441       .  S
C1107      C1108   1.432       .  A
C1107      C1628   1.477       .  S
C1108      C1109   1.394       .  A
C1108      C1688   1.480       .  S
C1109      C1367   1.436       .  S
N1110      C1114   1.345       .  A
N1110      C1111   1.341       .  A
N1110      C1413   1.431       .  S
C1111      C1112   1.389       .  A
C1111      C1394   1.416       .  S
C1112      C1113   1.398       .  A
C1112      C1830   1.449       .  S
C1113      C1114   1.386       .  A
C1113      C1554   1.471       .  S
C1114      C1365   1.398       .  S
Zn1115     O1119   1.879       .  S
Zn1115     O1120   1.997       .  S
Zn1115     O1124   2.026       .  S
Zn1115     O1131   1.986       .  S
Zn1116     O1119   1.843       .  S
Zn1116     O1121   1.926       .  S
Zn1116     O1123   1.925       .  S
Zn1116     O1127   1.964       .  S
Zn1117     O1119   1.881       .  S
Zn1117     O1122   1.983       .  S
Zn1117     O1125   1.958       .  S
Zn1117     O1128   1.974       .  S
Zn1118     O1119   1.891       .  S
Zn1118     O1126   2.007       .  S
Zn1118     O1129   2.036       .  S
Zn1118     O1130   1.969       .  S
O1120      C1132   1.271       .  A
O1121      C1133   1.262       .  A
O1122      C1134   1.270       .  A
O1123      C1132   1.263       .  A
O1124      C1134   1.274       .  A
O1125      C1133   1.266       .  A
O1126      C1135   1.276       .  A
O1127      C1136   1.263       .  A
O1128      C1135   1.270       .  A
O1129      C1136   1.272       .  A
O1130      C1137   1.272       .  A
O1131      C1137   1.275       .  A
C1132      C1371   1.401       .  S
C1133      C1366   1.388       .  S
C1134      C1446   1.427       .  S
C1135      C1558   1.417       .  S
C1136      C1368   1.426       .  S
C1137      C1698   1.405       .  S
Zn1138     O1142   1.938       .  S
Zn1138     O1143   1.994       .  S
Zn1138     O1147   1.974       .  S
Zn1138     O1154   1.999       .  S
Zn1139     O1142   1.930       .  S
Zn1139     O1144   1.987       .  S
Zn1139     O1146   1.989       .  S
Zn1139     O1150   2.022       .  S
Zn1140     O1142   1.953       .  S
Zn1140     O1145   2.027       .  S
Zn1140     O1148   2.029       .  S
Zn1140     O1151   2.031       .  S
Zn1141     O1142   1.928       .  S
Zn1141     O1149   1.961       .  S
Zn1141     O1152   1.988       .  S
Zn1141     O1153   1.990       .  S
O1143      C1155   1.268       .  A
O1144      C1156   1.268       .  A
O1145      C1157   1.272       .  A
O1146      C1155   1.270       .  A
O1147      C1157   1.267       .  A
O1148      C1156   1.274       .  A
O1149      C1158   1.266       .  A
O1150      C1159   1.272       .  A
O1151      C1158   1.275       .  A
O1152      C1159   1.269       .  A
O1153      C1160   1.267       .  A
O1154      C1160   1.271       .  A
C1155      C1569   1.420       .  S
C1156      C1370   1.430       .  S
C1157      C1386   1.426       .  S
C1158      C1377   1.422       .  S
C1159      C1641   1.428       .  S
C1160      C1435   1.422       .  S
N1161      C1166   1.354       .  A
N1161      C1165   1.354       .  A
N1161      H1193   1.038   1_655  S
N1162      C1169   1.344   1_455  A
N1162      C1170   1.345       .  A
N1163      C1168   1.344       .  A
N1163      C1167   1.346       .  A
N1163      H1194   1.042       .  S
N1164      C1171   1.336   1_455  A
N1164      C1172   1.339       .  A
C1165      C1173   1.385       .  A
C1165      C1181   1.415       .  A
C1166      C1182   1.407       .  A
C1166      C1174   1.372       .  A
C1167      C1175   1.388       .  A
C1167      C1184   1.406       .  A
C1168      C1183   1.402       .  A
C1168      C1176   1.385       .  A
C1169      C1181   1.400       .  A
C1169      C1177   1.385   1_655  A
C1170      C1184   1.403       .  A
C1170      C1178   1.387       .  A
C1171      C1179   1.384   1_655  A
C1171      C1182   1.389       .  A
C1172      C1180   1.386       .  A
C1172      C1183   1.395       .  A
C1173      C1174   1.371       .  A
C1173      H1185   1.077       .  S
C1174      H1186   1.073       .  S
C1175      C1176   1.374       .  A
C1175      H1187   1.082       .  S
C1176      H1188   1.083       .  S
C1177      C1178   1.372       .  A
C1177      H1189   1.082       .  S
C1178      H1190   1.082       .  S
C1179      C1180   1.377       .  A
C1179      H1191   1.082   1_455  S
C1180      H1192   1.082       .  S
C1181      C1788   1.482       .  S
C1182      C1776   1.483       .  S
C1183      C1818   1.460       .  S
C1184      C1805   1.472       .  S
N1195      C1200   1.353       .  A
N1195      C1199   1.347       .  A
N1195      H1227   1.045       .  S
N1196      C1203   1.338       .  A
N1196      C1204   1.343       .  A
N1197      C1202   1.347   1_455  A
N1197      C1201   1.350       .  A
N1197      H1228   1.042       .  S
N1198      C1205   1.341       .  A
N1198      C1206   1.336       .  A
C1199      C1207   1.387       .  A
C1199      C1215   1.410       .  A
C1200      C1216   1.403   1_455  A
C1200      C1208   1.381       .  A
C1201      C1209   1.384       .  A
C1201      C1218   1.405       .  A
C1202      C1217   1.411       .  A
C1202      C1210   1.390       .  A
C1203      C1215   1.392       .  A
C1203      C1211   1.386       .  A
C1204      C1218   1.402       .  A
C1204      C1212   1.386       .  A
C1205      C1213   1.388       .  A
C1205      C1216   1.395       .  A
C1206      C1214   1.386       .  A
C1206      C1217   1.393       .  A
C1207      C1208   1.360       .  A
C1207      H1219   1.074       .  S
C1208      H1220   1.080       .  S
C1209      C1210   1.373   1_455  A
C1209      H1221   1.082       .  S
C1210      H1222   1.082       .  S
C1211      C1212   1.377       .  A
C1211      H1223   1.082       .  S
C1212      H1224   1.082       .  S
C1213      C1214   1.373       .  A
C1213      H1225   1.083       .  S
C1214      H1226   1.082       .  S
C1215      C1462   1.463       .  S
C1216      C1432   1.467       .  S
C1217      C1442   1.458       .  S
C1218      C1452   1.473       .  S
N1229      C1234   1.347       .  A
N1229      C1233   1.347       .  A
N1229      H1261   1.040       .  S
N1230      C1237   1.343       .  A
N1230      C1238   1.343   1_554  A
N1231      C1236   1.354       .  A
N1231      C1235   1.354       .  A
N1231      H1262   1.038       .  S
N1232      C1239   1.343       .  A
N1232      C1240   1.341   1_554  A
C1233      C1241   1.383       .  A
C1233      C1249   1.402       .  A
C1234      C1250   1.398       .  A
C1234      C1242   1.382       .  A
C1235      C1243   1.387       .  A
C1235      C1252   1.416       .  A
C1236      C1251   1.408       .  A
C1236      C1244   1.383       .  A
C1237      C1249   1.405       .  A
C1237      C1245   1.386       .  A
C1238      C1252   1.401       .  A
C1238      C1246   1.387   1_556  A
C1239      C1247   1.382       .  A
C1239      C1250   1.394       .  A
C1240      C1248   1.390       .  A
C1240      C1251   1.399       .  A
C1241      C1242   1.377       .  A
C1241      H1253   1.080       .  S
C1242      H1254   1.082       .  S
C1243      C1244   1.363       .  A
C1243      H1255   1.078       .  S
C1244      H1256   1.082       .  S
C1245      C1246   1.371       .  A
C1245      H1257   1.083       .  S
C1246      H1258   1.082       .  S
C1247      C1248   1.369   1_554  A
C1247      H1259   1.083       .  S
C1248      H1260   1.082       .  S
C1249      C1674   1.471       .  S
C1250      C1662   1.468       .  S
C1251      C1650   1.460       .  S
C1252      C1638   1.470       .  S
N1263      C1268   1.344       .  A
N1263      C1267   1.349       .  A
N1263      H1295   1.042       .  S
N1264      C1271   1.348       .  A
N1264      C1272   1.347       .  A
N1265      C1270   1.352       .  A
N1265      C1269   1.346       .  A
N1265      H1296   1.040   1_545  S
N1266      C1273   1.346       .  A
N1266      C1274   1.350   1_565  A
C1267      C1275   1.386       .  A
C1267      C1283   1.403       .  A
C1268      C1284   1.406       .  A
C1268      C1276   1.389       .  A
C1269      C1277   1.387       .  A
C1269      C1286   1.410       .  A
C1270      C1285   1.414       .  A
C1270      C1278   1.388       .  A
C1271      C1283   1.403       .  A
C1271      C1279   1.382       .  A
C1272      C1286   1.402   1_565  A
C1272      C1280   1.382       .  A
C1273      C1281   1.380       .  A
C1273      C1284   1.401       .  A
C1274      C1282   1.384       .  A
C1274      C1285   1.411       .  A
C1275      C1276   1.376       .  A
C1275      H1287   1.082       .  S
C1276      H1288   1.082       .  S
C1277      C1278   1.377       .  A
C1277      H1289   1.081       .  S
C1278      H1290   1.081       .  S
C1279      C1280   1.374       .  A
C1279      H1291   1.079       .  S
C1280      H1292   1.081       .  S
C1281      C1282   1.375   1_565  A
C1281      H1293   1.079       .  S
C1282      H1294   1.081       .  S
C1283      C1578   1.478       .  S
C1284      C1566   1.467       .  S
C1285      C1601   1.488       .  S
C1286      C1590   1.469       .  S
N1297      C1302   1.352       .  A
N1297      C1301   1.350       .  A
N1297      H1329   1.044       .  S
N1298      C1305   1.337       .  A
N1298      C1306   1.339       .  A
N1299      C1304   1.346       .  A
N1299      C1303   1.351       .  A
N1299      H1330   1.037       .  S
N1300      C1307   1.346       .  A
N1300      C1308   1.341   1_554  A
C1301      C1309   1.384       .  A
C1301      C1317   1.408       .  A
C1302      C1318   1.398       .  A
C1302      C1310   1.379       .  A
C1303      C1311   1.392       .  A
C1303      C1320   1.418       .  A
C1304      C1319   1.403       .  A
C1304      C1312   1.383       .  A
C1305      C1317   1.389       .  A
C1305      C1313   1.387       .  A
C1306      C1320   1.400   1_554  A
C1306      C1314   1.388       .  A
C1307      C1315   1.381       .  A
C1307      C1318   1.391       .  A
C1308      C1316   1.390       .  A
C1308      C1319   1.404       .  A
C1309      C1310   1.365       .  A
C1309      H1321   1.079       .  S
C1310      H1322   1.080       .  S
C1311      C1312   1.368       .  A
C1311      H1323   1.079       .  S
C1312      H1324   1.082       .  S
C1313      C1314   1.372       .  A
C1313      H1325   1.083       .  S
C1314      H1326   1.082       .  S
C1315      C1316   1.369   1_554  A
C1315      H1327   1.082       .  S
C1316      H1328   1.077       .  S
C1317      C1745   1.461       .  S
C1318      C1734   1.471       .  S
C1319      C1716   1.457       .  S
C1320      C1703   1.464       .  S
N1331      C1336   1.346       .  A
N1331      C1335   1.338   1_565  A
N1331      H1363   1.041       .  S
N1332      C1339   1.347       .  A
N1332      C1340   1.343       .  A
N1333      C1338   1.346       .  A
N1333      C1337   1.349       .  A
N1333      H1364   1.039       .  S
N1334      C1341   1.343       .  A
N1334      C1342   1.343       .  A
C1335      C1343   1.380       .  A
C1335      C1351   1.386       .  A
C1336      C1352   1.408       .  A
C1336      C1344   1.392       .  A
C1337      C1345   1.385       .  A
C1337      C1354   1.399   1_565  A
C1338      C1353   1.405       .  A
C1338      C1346   1.389       .  A
C1339      C1351   1.393       .  A
C1339      C1347   1.380       .  A
C1340      C1354   1.402       .  A
C1340      C1348   1.388       .  A
C1341      C1349   1.383       .  A
C1341      C1352   1.405       .  A
C1342      C1350   1.384       .  A
C1342      C1353   1.392       .  A
C1343      C1344   1.379   1_545  A
C1343      H1355   1.082       .  S
C1344      H1356   1.081       .  S
C1345      C1346   1.367       .  A
C1345      H1357   1.082       .  S
C1346      H1358   1.083       .  S
C1347      C1348   1.367       .  A
C1347      H1359   1.083       .  S
C1348      H1360   1.077       .  S
C1349      C1350   1.374       .  A
C1349      H1361   1.077       .  S
C1350      H1362   1.083       .  S
C1351      C1890   1.459       .  S
C1352      C1848   1.472       .  S
C1353      C1859   1.463       .  S
C1354      C1878   1.457       .  S
C1365      C1366   1.178       .  T
C1367      C1368   1.200       .  T
C1369      C1370   1.203       .  T
C1371      C1372   1.186       .  T
C1373      C1374   1.186       .  T
C1375      C1376   1.188       .  T
C1377      C1378   1.199       .  T
C1379      C1380   1.187       .  T
C1381      C1382   1.189       .  T
C1383      C1384   1.181       .  T
C1385      C1386   1.201       .  T
C1387      C1388   1.186       .  T
C1389      C1390   1.213       .  T
C1391      C1392   1.201       .  T
C1393      C1394   1.189       .  T
C1395      C1396   1.197       .  T
C1397      C1398   1.191       .  T
C1399      C1400   1.203       .  T
C1401      C1402   1.204       .  T
C1403      C1404   1.179       .  T
C1405      C1406   1.198       .  T
C1407      C1408   1.191       .  T
C1409      C1410   1.190       .  T
C1411      C1412   1.189       .  T
C1413      C1414   1.226       .  T
C1415      C1416   1.245       .  T
C1417      C1418   1.223       .  T
C1419      C1420   1.227       .  T
C1421      C1422   1.232       .  T
C1423      C1424   1.228       .  T
C1425      C1426   1.192       .  T
C1427      C1428   1.216       .  T
C1429      C1430   1.211       .  T
C1431      C1432   1.345       .  D
C1431      H1433   1.087       .  S
C1432      H1434   1.084       .  S
C1435      C1436   1.198       .  T
C1437      C1438   1.250       .  T
C1439      C1440   1.264       .  T
C1441      C1442   1.321       .  D
C1441      H1443   1.089       .  S
C1442      H1444   1.088       .  S
C1445      C1446   1.202       .  T
C1447      C1448   1.212       .  T
C1449      C1450   1.209       .  T
C1451      C1452   1.342       .  D
C1451      H1453   1.087       .  S
C1452      H1454   1.072       .  S
C1455      C1456   1.191       .  T
C1457      C1458   1.256       .  T
C1459      C1460   1.255       .  T
C1461      C1462   1.338       .  D
C1461      H1463   1.087       .  S
C1462      H1464   1.086       .  S
C1465      C1466   1.182       .  T
C1467      C1468   1.222       .  T
C1469      C1470   1.198       .  T
C1471      C1472   1.247       .  T
C1473      C1474   1.194       .  T
C1475      C1476   1.191       .  T
C1477      C1478   1.191       .  T
C1479      C1480   1.187       .  T
C1481      C1482   1.195       .  T
C1483      C1484   1.185       .  T
C1485      C1486   1.191       .  T
C1487      C1488   1.254       .  T
C1489      C1490   1.187       .  T
C1491      C1492   1.201       .  T
C1493      C1494   1.203       .  T
C1495      C1496   1.227       .  T
C1497      C1498   1.207       .  T
C1499      C1500   1.218       .  T
C1501      C1502   1.200       .  T
C1503      C1504   1.184       .  T
C1505      C1506   1.188       .  T
C1507      C1508   1.232       .  T
C1509      C1510   1.183       .  T
C1511      C1512   1.201       .  T
C1513      C1514   1.186       .  T
C1515      C1516   1.186       .  T
C1517      C1518   1.238       .  T
C1519      C1520   1.191       .  T
C1521      C1522   1.180       .  T
C1523      C1524   1.199       .  T
C1525      C1526   1.182       .  T
C1527      C1528   1.191       .  T
C1529      C1530   1.203       .  T
C1531      C1532   1.195       .  T
C1533      C1534   1.243       .  T
C1535      C1536   1.249       .  T
C1537      C1538   1.229       .  T
C1539      C1540   1.239       .  T
C1541      C1542   1.219       .  T
C1543      C1544   1.214       .  T
C1545      C1546   1.228       .  T
C1547      C1548   1.285       .  T
C1549      C1550   1.205   1_554  T
C1551      C1552   1.213       .  T
C1553      C1554   1.225       .  T
C1555      C1556   1.215       .  T
C1557      C1558   1.195       .  T
C1559      C1560   1.199       .  T
C1561      C1562   1.213       .  T
C1563      C1564   1.208       .  T
C1565      C1566   1.341       .  D
C1565      H1567   1.088       .  S
C1566      H1568   1.085       .  S
C1569      C1570   1.196       .  T
C1571      C1572   1.203       .  T
C1573      C1574   1.235       .  T
C1575      C1576   1.222       .  T
C1577      C1578   1.348       .  D
C1577      H1579   1.086       .  S
C1578      H1580   1.085       .  S
C1581      C1582   1.190       .  T
C1583      C1584   1.188       .  T
C1585      C1586   1.209       .  T
C1587      C1588   1.206       .  T
C1589      C1590   1.339       .  D
C1589      H1591   1.087       .  S
C1590      H1592   1.087       .  S
C1593      C1594   1.182       .  T
C1595      C1596   1.209       .  T
C1597      C1598   1.270       .  T
C1599      C1600   1.284       .  T
C1601      C1602   1.349       .  D
C1601      H1603   1.085       .  S
C1602      H1604   1.086       .  S
C1605      C1606   1.216       .  T
C1607      C1608   1.225       .  T
C1609      C1610   1.215       .  T
C1611      C1612   1.233       .  T
C1613      C1614   1.202   1_655  T
C1615      C1616   1.299       .  T
C1617      C1618   1.224       .  T
C1619      C1620   1.226   1_655  T
C1621      C1622   1.217       .  T
C1623      C1624   1.243       .  T
C1625      C1626   1.254       .  T
C1627      C1628   1.231       .  T
C1629      C1630   1.194       .  T
C1631      C1632   1.197       .  T
C1633      C1634   1.217       .  T
C1635      C1636   1.216       .  T
C1637      C1638   1.338       .  D
C1637      H1639   1.086       .  S
C1638      H1640   1.085       .  S
C1641      C1642   1.202       .  T
C1643      C1644   1.197       .  T
C1645      C1646   1.280       .  T
C1647      C1648   1.283       .  T
C1649      C1650   1.339       .  D
C1649      H1651   1.086       .  S
C1650      H1652   1.085       .  S
C1653      C1654   1.185       .  T
C1655      C1656   1.197       .  T
C1657      C1658   1.207       .  T
C1659      C1660   1.207       .  T
C1661      C1662   1.350       .  D
C1661      H1663   1.087       .  S
C1662      H1664   1.084       .  S
C1665      C1666   1.200       .  T
C1667      C1668   1.187       .  T
C1669      C1670   1.235       .  T
C1671      C1672   1.232       .  T
C1673      C1674   1.343       .  D
C1673      H1675   1.088       .  S
C1674      H1676   1.083       .  S
C1677      C1678   1.216       .  T
C1679      C1680   1.235       .  T
C1681      C1682   1.217       .  T
C1683      C1684   1.226       .  T
C1685      C1686   1.231       .  T
C1687      C1688   1.233       .  T
C1689      C1690   1.247       .  T
C1691      C1692   1.263       .  T
C1693      C1694   1.217       .  T
C1695      C1696   1.195       .  T
C1697      C1698   1.188       .  T
C1699      C1700   1.224       .  T
C1701      C1702   1.228       .  T
C1703      C1704   1.340       .  D
C1703      H1705   1.087       .  S
C1704      H1706   1.087       .  S
C1707      C1708   1.202       .  T
C1709      C1710   1.187       .  T
C1711      C1712   1.244       .  T
C1713      C1714   1.249       .  T
C1715      C1716   1.329       .  D
C1715      H1717   1.089       .  S
C1716      H1718   1.079       .  S
C1719      C1720   1.226       .  T
C1721      C1722   1.245       .  T
C1723      C1724   1.212       .  T
C1725      C1726   1.203       .  T
C1727      C1728   1.195       .  T
C1729      C1730   1.212       .  T
C1731      C1732   1.216       .  T
C1733      C1734   1.341       .  D
C1733      H1735   1.087       .  S
C1734      H1736   1.084       .  S
C1737      C1738   1.216       .  T
C1739      C1740   1.180       .  T
C1741      C1742   1.242       .  T
C1743      C1744   1.261       .  T
C1745      C1746   1.344       .  D
C1745      H1747   1.085       .  S
C1746      H1748   1.087       .  S
C1749      C1750   1.232       .  T
C1751      C1752   1.307       .  T
C1753      C1754   1.204       .  T
C1755      C1756   1.238       .  T
C1757      C1758   1.217       .  T
C1759      C1760   1.255       .  T
C1761      C1762   1.236       .  T
C1763      C1764   1.195       .  T
C1765      C1766   1.269       .  T
C1767      C1768   1.201       .  T
C1769      C1770   1.188       .  T
C1771      C1772   1.191       .  T
C1773      C1774   1.189       .  T
C1775      C1776   1.353       .  D
C1775      H1777   1.087       .  S
C1776      H1778   1.084       .  S
C1779      C1780   1.182       .  T
C1781      C1782   1.205       .  T
C1783      C1784   1.309       .  T
C1785      C1786   1.292       .  T
C1787      C1788   1.348       .  D
C1787      H1789   1.086       .  S
C1788      H1790   1.085       .  S
C1791      C1792   1.231       .  T
C1793      C1794   1.238       .  T
C1795      C1796   1.219       .  T
C1797      C1798   1.202       .  T
C1799      C1800   1.185       .  T
C1801      C1802   1.209       .  T
C1803      C1804   1.200       .  T
C1805      C1806   1.338       .  D
C1805      H1807   1.080       .  S
C1806      H1808   1.087       .  S
C1809      C1810   1.184       .  T
C1811      C1812   1.201       .  T
C1813      C1814   1.261       .  T
C1815      C1816   1.251       .  T
C1817      C1818   1.335       .  D
C1817      H1819   1.088       .  S
C1818      H1820   1.085       .  S
C1821      C1822   1.241       .  T
C1823      C1824   1.204       .  T
C1825      C1826   1.253       .  T
C1827      C1828   1.218       .  T
C1829      C1830   1.213       .  T
C1831      C1832   1.234       .  T
C1833      C1834   1.219       .  T
C1835      C1836   1.229       .  T
C1837      C1838   1.246       .  T
C1839      C1840   1.198       .  T
C1841      C1842   1.191       .  T
C1843      C1844   1.218       .  T
C1845      C1846   1.220       .  T
C1847      C1848   1.335       .  D
C1847      H1849   1.086       .  S
C1848      H1850   1.085       .  S
C1851      C1852   1.208       .  T
C1853      C1854   1.192       .  T
C1855      C1856   1.240       .  T
C1857      C1858   1.238       .  T
C1859      C1860   1.352       .  D
C1859      H1861   1.083       .  S
C1860      H1862   1.088       .  S
C1863      C1864   1.232       .  T
C1865      C1866   1.236       .  T
C1867      C1868   1.233       .  T
C1869      C1870   1.194       .  T
C1871      C1872   1.192       .  T
C1873      C1874   1.212       .  T
C1875      C1876   1.210       .  T
C1877      C1878   1.331       .  D
C1877      H1879   1.088       .  S
C1878      H1880   1.088       .  S
C1881      C1882   1.193       .  T
C1883      C1884   1.191       .  T
C1885      C1886   1.257       .  T
C1887      C1888   1.263       .  T
C1889      C1890   1.345       .  D
C1889      H1891   1.087       .  S
C1890      H1892   1.083       .  S
