geometry optimzed in LAMMPS
_audit_creation_date              2020-11-30 
_audit_creation_method            'lammps2cif' 
_symmetry_space_group_name_H-M    'P1' 
_symmetry_Int_Tables_number       1 
_symmetry_cell_setting            triclinic 
loop_ 
_symmetry_equiv_pos_as_xyz 
  x,y,z 
_cell_length_a                    30.46216574 
_cell_length_b                    30.363622277139353 
_cell_length_c                    26.943367708150394 
_cell_angle_alpha                 88.55531406774423 
_cell_angle_beta                  91.21799963026164 
_cell_angle_gamma                 89.99146181496856 
loop_ 
_atom_site_label 
_atom_site_type_symbol 
_atom_site_fract_x 
_atom_site_fract_y 
_atom_site_fract_z 
_atom_site_charge 
O1          O  0.39849112  0.02659063  0.00945858    -0.72200
O2          O  0.26673245  0.02322384  0.00203298    -0.73100
O3          O  0.33085539  0.02511527  0.08047857    -0.61800
O4          O  0.32680523  0.02272538  0.43192347    -0.70200
O5          O  0.32744164  0.94956907  0.43404999    -0.69700
O6          O  0.33369099  0.95198264  0.08290784    -0.61000
O7          O  0.26112526  0.94828252  0.50772009    -0.73500
O8          O  0.39363319  0.95115901  0.51030442    -0.72300
Cu9        Cu  0.33252419  0.02743035  0.00597258     1.04600
Cu10       Cu  0.32747290  0.94714778  0.50890273     1.04300
C11         C  0.42033414  0.99063582  0.01082233     0.94000
C12         C  0.23954938  0.98442967  0.50481969     0.93200
C13         C  0.33189170  0.98859368  0.10506914     0.85300
C14         C  0.32761404  0.98617809  0.40953734     0.91600
O15         O  0.26414603  0.95120219  0.25437380    -0.72200
O16         O  0.39669998  0.95143431  0.26000430    -0.73100
O17         O  0.32912780  0.95016649  0.33221918    -0.61800
O18         O  0.33151776  0.95174724  0.18347182    -0.70200
O19         O  0.33015556  0.02492089  0.18202273    -0.69700
O20         O  0.32968094  0.02331899  0.33105244    -0.61000
O21         O  0.39572988  0.02458357  0.25788366    -0.73500
O22         O  0.26428282  0.02427653  0.25501115    -0.72300
Cu23       Cu  0.33039369  0.94853253  0.25764855     1.04600
Cu24       Cu  0.32998417  0.02678354  0.25650234     1.04300
C25         C  0.24338858  0.98785242  0.25385852     0.94000
C26         C  0.41698959  0.98832017  0.25891948     0.93200
C27         C  0.32886494  0.98651213  0.35508822     0.85300
C28         C  0.33111807  0.98848334  0.15936281     0.91600
O29         O  0.90211219  0.60643745  0.06129478    -0.72200
O30         O  0.89688532  0.60629273  0.41185364    -0.73100
O31         O  0.89817330  0.53962657  0.48757012    -0.61800
O32         O  0.90099861  0.67345559  0.98604267    -0.70200
O33         O  0.97386850  0.67446844  0.98961156    -0.69700
O34         O  0.97632792  0.54269430  0.98871610    -0.61000
O35         O  0.96973919  0.60944941  0.41474801    -0.73500
O36         O  0.97504907  0.60681389  0.06331683    -0.72300
Cu37       Cu  0.89336041  0.60583077  0.48632008     1.04600
Cu38       Cu  0.97753896  0.60868044  0.98883190     1.04300
C39         C  0.93849461  0.60641174  0.08572276     0.94000
C40         C  0.93367452  0.60756970  0.38990656     0.93200
C41         C  0.94045700  0.52092945  0.98898425     0.85300
C42         C  0.93713792  0.69477755  0.98842437     0.91600
O43         O  0.97135784  0.67283037  0.23660059    -0.72200
O44         O  0.97494219  0.54085778  0.24192569    -0.73100
O45         O  0.97430642  0.60630857  0.16486632    -0.61800
O46         O  0.97146238  0.60773249  0.31373804    -0.70200
O47         O  0.89860219  0.60454025  0.31071528    -0.69700
O48         O  0.90137667  0.60587848  0.16214806    -0.61000
O49         O  0.90207774  0.53886529  0.23769941    -0.73500
O50         O  0.89845017  0.67122143  0.23618203    -0.72300
Cu51       Cu  0.97556527  0.60696163  0.23936561     1.04600
Cu52       Cu  0.89756558  0.60501600  0.23643979     1.04300
C53         C  0.93446469  0.69280248  0.23658202     0.94000
C54         C  0.93911726  0.51905250  0.24056290     0.93200
C55         C  0.93809267  0.60613344  0.14009491     0.85300
C56         C  0.93462413  0.60659986  0.33560517     0.91600
O57         O  0.55440644  0.03145897  0.08572377    -0.72200
O58         O  0.54565503  0.03036087  0.43555126    -0.73100
O59         O  0.48059427  0.02768369  0.50965877    -0.61800
O60         O  0.61987175  0.03586599  0.01159549    -0.70200
O61         O  0.62301448  0.96285181  0.01003361    -0.69700
O62         O  0.48415084  0.95463090  0.51335540    -0.61000
O63         O  0.54865297  0.95722780  0.43850831    -0.73500
O64         O  0.55879151  0.95843611  0.08656508    -0.72300
Cu65       Cu  0.54624172  0.03403770  0.50980035     1.04600
Cu66       Cu  0.55706770  0.95701292  0.01195119     1.04300
C67         C  0.55625348  0.99457476  0.10960176     0.94000
C68         C  0.54752638  0.99357338  0.41367824     0.93200
C69         C  0.46860962  0.99229281  0.01165742     0.85300
C70         C  0.63481505  0.00024648  0.50993055     0.91600
O71         O  0.55570932  0.95711736  0.18832521    -0.72200
O72         O  0.55096049  0.95651160  0.33737357    -0.73100
O73         O  0.48725681  0.95373621  0.25963565    -0.61800
O74         O  0.61920768  0.95938067  0.26710473    -0.70200
O75         O  0.61636959  0.03244369  0.26303566    -0.69700
O76         O  0.48469350  0.02684643  0.25850560    -0.61000
O77         O  0.54914501  0.02968222  0.33492399    -0.73500
O78         O  0.55184276  0.03017920  0.18657257    -0.72300
Cu79       Cu  0.55340418  0.95407771  0.26312268     1.04600
Cu80       Cu  0.55039754  0.03229216  0.26070306     1.04300
C81         C  0.55469907  0.99385261  0.16402856     0.94000
C82         C  0.54913198  0.99318271  0.35947811     0.93200
C83         C  0.46521233  0.98956412  0.25893782     0.85300
C84         C  0.63856955  0.99671524  0.26556816     0.91600
N85         N  0.89240840  0.04619781  0.51461055    -0.35800
N86         N  0.98733880  0.04065743  0.51077397    -0.56400
N87         N  0.98200523  0.94552152  0.51306186    -0.35800
N88         N  0.88713622  0.95098521  0.51386608    -0.56400
C89         C  0.90290665  0.08793901  0.50074875     0.27800
C90         C  0.84952314  0.04007549  0.50260908     0.27800
C91         C  0.02370221  0.95219095  0.49828036     0.27800
C92         C  0.97013603  0.90466380  0.49903556     0.27800
C93         C  0.98280267  0.08398655  0.51970065     0.36400
C94         C  0.03009468  0.03071840  0.51945859     0.36400
C95         C  0.84565990  0.96092728  0.52629244     0.36400
C96         C  0.89276259  0.90756820  0.52425830     0.36400
C97         C  0.86613763  0.10879442  0.47999742    -0.21100
C98         C  0.83258042  0.07841307  0.48061364    -0.21100
C99         C  0.03848707  0.91525402  0.47445958    -0.21100
C100        C  0.00460856  0.88528196  0.47477986    -0.21100
C101        C  0.02283519  0.10173516  0.53416437    -0.22200
C102        C  0.05273227  0.06783524  0.53458842    -0.22200
C103        C  0.82509206  0.92375784  0.54578409    -0.22200
C104        C  0.85494548  0.88982412  0.54422405    -0.22200
C105        C  0.94398323  0.10828779  0.50976559    -0.17500
C106        C  0.82497679  0.00165528  0.51416594    -0.17500
C107        C  0.93017526  0.88349177  0.51092690    -0.17500
C108        C  0.04938656  0.98982707  0.50844957    -0.17500
H109        H  0.86355485  0.14245009  0.46609019     0.15400
H110        H  0.79933446  0.08419955  0.46706251     0.15400
H111        H  0.07043887  0.91033796  0.45867514     0.15400
H112        H  0.00546081  0.85273618  0.45935098     0.15400
H113        H  0.02999392  0.13568936  0.54252278     0.13700
H114        H  0.08740530  0.07058029  0.54353074     0.13700
H115        H  0.79166299  0.92106620  0.55833679     0.13700
H116        H  0.84918080  0.85586239  0.55538894     0.13700
H117        H  0.91213416  0.02471267  0.53632111     0.27000
H118        H  0.96452260  0.96568424  0.53651041     0.26900
N119        N  0.89150716  0.94854520  0.25490450    -0.35800
N120        N  0.98667779  0.94533738  0.24878101    -0.56400
N121        N  0.98952183  0.04002492  0.25104662    -0.35800
N122        N  0.89424555  0.04338441  0.25294151    -0.56400
C123        C  0.89798318  0.90679648  0.24041095     0.27800
C124        C  0.84903415  0.95874063  0.24454607     0.27800
C125        C  0.03071560  0.03036464  0.23700990     0.27800
C126        C  0.98160434  0.08250811  0.23753324     0.27800
C127        C  0.97762830  0.90273354  0.25979087     0.36400
C128        C  0.02974061  0.95119237  0.25972439     0.36400
C129        C  0.85221812  0.03709590  0.26645312     0.36400
C130        C  0.90412208  0.08559136  0.26300899     0.36400
C131        C  0.85923615  0.89033822  0.22022933    -0.21100
C132        C  0.82823971  0.92314985  0.22300880    -0.21100
C133        C  0.04909296  0.06702600  0.21380268    -0.21100
C134        C  0.01803518  0.10002022  0.21416151    -0.21100
C135        C  0.01499987  0.88137304  0.27813165    -0.22200
C136        C  0.04803800  0.91222065  0.27841642    -0.22200
C137        C  0.83534932  0.07538017  0.28550849    -0.22200
C138        C  0.86829816  0.10621392  0.28324685    -0.22200
C139        C  0.93701941  0.88234587  0.24897198    -0.17500
C140        C  0.82819426  0.99825623  0.25756672    -0.17500
C141        C  0.94371148  0.10648705  0.24974222    -0.17500
C142        C  0.05296560  0.99040565  0.24870243    -0.17500
H143        H  0.85364960  0.85781477  0.20583022     0.15400
H144        H  0.79418137  0.92090158  0.21106839     0.15400
H145        H  0.08173231  0.06991184  0.19895575     0.18000
H146        H  0.02209696  0.13331347  0.19969243     0.15400
H147        H  0.01819832  0.84706679  0.28953084     0.13700
H148        H  0.08177307  0.90637613  0.29015082     0.13700
H149        H  0.80256742  0.08074904  0.29884692     0.13700
H150        H  0.86595303  0.14008203  0.29451015     0.13700
H151        H  0.91328320  0.96698763  0.27625864     0.27000
H152        H  0.97014134  0.02058370  0.27424398     0.26900
O153        O  0.98291507  0.38731638  0.07015158    -0.72200
O154        O  0.97763348  0.38515667  0.42092228    -0.73100
O155        O  0.97474497  0.45265262  0.49159520    -0.61800
O156        O  0.98730868  0.32160813  0.99729271    -0.70200
O157        O  0.91449572  0.31796185  0.99808466    -0.69700
O158        O  0.90671972  0.45013964  0.99049444    -0.61000
O159        O  0.90479056  0.38152667  0.41955007    -0.73500
O160        O  0.91001569  0.38497291  0.06794835    -0.72300
Cu161      Cu  0.98079978  0.38679146  0.49524836     1.04600
Cu162      Cu  0.90783676  0.38379127  0.99395739     1.04300
C163        C  0.94626817  0.38586206  0.09246220     0.94000
C164        C  0.94114754  0.38310615  0.39681405     0.93200
C165        C  0.94220874  0.47259483  0.99083983     0.85300
C166        C  0.95200633  0.29903672  0.99906764     0.91600
O167        O  0.97803985  0.38444512  0.32045366    -0.72200
O168        O  0.98135573  0.38491897  0.17200313    -0.73100
O169        O  0.97758602  0.45086874  0.24438227    -0.61800
O170        O  0.98082693  0.31832037  0.24844644    -0.70200
O171        O  0.90800609  0.31709832  0.24332697    -0.69700
O172        O  0.90468795  0.44898637  0.24172532    -0.61000
O173        O  0.90844057  0.38410290  0.16843642    -0.73500
O174        O  0.90516080  0.38198641  0.31751711    -0.72300
Cu175      Cu  0.98199877  0.38467723  0.24647151     1.04600
Cu176      Cu  0.90401778  0.38295637  0.24266782     1.04300
C177        C  0.94133572  0.38304676  0.34241180     0.94000
C178        C  0.94539065  0.38495820  0.14681715     0.93200
C179        C  0.94055070  0.47073511  0.24232262     0.85300
C180        C  0.94475801  0.29686129  0.24617843     0.91600
C181        C  0.91654550  0.17928355  0.21545152     0.24400
C182        C  0.94516086  0.15544511  0.24771925    -0.23700
C183        C  0.97411586  0.17837055  0.27911392     0.19300
C184        C  0.97450267  0.22446938  0.27816810     0.24300
C185        C  0.94532211  0.24828354  0.24649635    -0.23700
C186        C  0.91618121  0.22529188  0.21534654     0.19200
F187        F  0.88783179  0.24741488  0.18415129    -0.13600
F188        F  0.88879652  0.15786895  0.18419201    -0.16000
F189        F  0.00217876  0.24581916  0.30955135    -0.16000
F190        F  0.00129319  0.15602765  0.31144625    -0.13600
C191        C  0.92849920  0.22734822  0.03665749     0.24400
C192        C  0.95428145  0.25065738  0.00229289    -0.23700
C193        C  0.94971641  0.22573724  0.45887206     0.19300
C194        C  0.94876975  0.17964304  0.46115752     0.24300
C195        C  0.94663115  0.15714396  0.50728852    -0.23700
C196        C  0.92815320  0.18132871  0.03767148     0.19200
F197        F  0.90341832  0.15946505  0.07160823    -0.13600
F198        F  0.90417202  0.24923954  0.06974962    -0.16000
F199        F  0.94917413  0.15689837  0.41842129    -0.16000
F200        F  0.95099017  0.24700948  0.41398334    -0.13600
C201        C  0.71220387  0.96961609  0.29599263     0.24400
C202        C  0.68698425  0.99849379  0.26535625    -0.23700
C203        C  0.70837433  0.02800752  0.23288402     0.19300
C204        C  0.75416827  0.02776527  0.23004376     0.24300
C205        C  0.77943568  0.99898586  0.26078720    -0.23700
C206        C  0.75806828  0.97026041  0.29416758     0.19200
F207        F  0.78174503  0.94278081  0.32496022    -0.13600
F208        F  0.69244697  0.94127303  0.32826957    -0.16000
F209        F  0.77384362  0.05496623  0.19649301    -0.16000
F210        F  0.68481750  0.05582721  0.20236977    -0.13600
C211        C  0.71570741  0.02681865  0.03969704     0.24400
C212        C  0.68317448  0.00278869  0.50847250    -0.23700
C213        C  0.70677601  0.97266100  0.48061820     0.19300
C214        C  0.75264291  0.97354730  0.48097598     0.24300
C215        C  0.77593497  0.00336917  0.51085508    -0.23700
C216        C  0.76158694  0.02755711  0.03676575     0.19200
F217        F  0.78550806  0.04929324  0.07146925    -0.13600
F218        F  0.69608980  0.04825426  0.07688638    -0.16000
F219        F  0.77441293  0.94496957  0.45231567    -0.16000
F220        F  0.68536938  0.94281135  0.45225983    -0.13600
C221        C  0.90850953  0.80815408  0.27632296     0.24400
C222        C  0.93555324  0.83358024  0.24512162    -0.23700
C223        C  0.96129338  0.81242531  0.21012794     0.19300
C224        C  0.96085259  0.76653786  0.20722892     0.24300
C225        C  0.93368279  0.74119521  0.23824538    -0.23700
C226        C  0.90717981  0.76232548  0.27247761     0.19200
F227        F  0.88138045  0.73842158  0.30358586    -0.13600
F228        F  0.88397486  0.82771542  0.31104952    -0.16000
F229        F  0.98639921  0.74685859  0.17353872    -0.16000
F230        F  0.98675095  0.83632980  0.17866306    -0.13600
C231        C  0.89764660  0.76900251  0.46842356     0.24400
C232        C  0.93666904  0.74324382  0.99065903    -0.23700
C233        C  0.96642854  0.76487443  0.02235777     0.19300
C234        C  0.96598903  0.81075991  0.02496512     0.24300
C235        C  0.92755236  0.83454940  0.50736427    -0.23700
C236        C  0.89758101  0.81479980  0.47419356     0.19200
F237        F  0.86921859  0.84002372  0.44623575    -0.13600
F238        F  0.86893227  0.75091796  0.43553886    -0.16000
F239        F  0.99402034  0.83071779  0.05718141    -0.16000
F240        F  0.99528879  0.74149472  0.05171834    -0.13600
C241        C  0.12584134  0.01934111  0.27904556     0.24400
C242        C  0.10204016  0.98986844  0.24927689    -0.23700
C243        C  0.12524786  0.96004724  0.22036911     0.19300
C244        C  0.17121863  0.95882428  0.22245211     0.24300
C245        C  0.19486232  0.98840744  0.25213598    -0.23700
C246        C  0.17175210  0.01909740  0.27982487     0.19200
F247        F  0.19364172  0.04814296  0.30879389    -0.13600
F248        F  0.10455063  0.04813159  0.30788855    -0.16000
F249        F  0.19265909  0.92963916  0.19425535    -0.16000
F250        F  0.10336835  0.93231842  0.18978777    -0.13600
C251        C  0.12139626  0.01474696  0.47297083     0.24400
C252        C  0.09820668  0.98667191  0.50544574    -0.23700
C253        C  0.12793857  0.95992305  0.03084991     0.19300
C254        C  0.17390188  0.95818661  0.03184963     0.24300
C255        C  0.19094112  0.98384923  0.50360245    -0.23700
C256        C  0.16731726  0.01395668  0.47277872     0.19200
F257        F  0.18871237  0.04225973  0.44187618    -0.13600
F258        F  0.09947866  0.04321601  0.44164568    -0.16000
F259        F  0.19473882  0.93101524  0.06550210    -0.16000
F260        F  0.10525682  0.93458086  0.06367852    -0.13600
O261        O  0.39149948  0.02427729  0.50887436    -0.72200
O262        O  0.25970452  0.02133824  0.50324987    -0.73100
O263        O  0.32493653  0.02313271  0.58068197    -0.61800
O264        O  0.33418178  0.02466225  0.93191896    -0.70200
O265        O  0.33487406  0.95147202  0.93438658    -0.69700
O266        O  0.32778035  0.95002055  0.58331342    -0.61000
O267        O  0.26813460  0.95013415  0.00663885    -0.73500
O268        O  0.40058489  0.95347254  0.01091960    -0.72300
Cu269      Cu  0.32560377  0.02536081  0.50612610     1.04600
Cu270      Cu  0.33442264  0.94918007  0.00882718     1.04300
C271        C  0.41335158  0.98833071  0.51024035     0.94000
C272        C  0.24663023  0.98628807  0.00302562     0.93200
C273        C  0.32680179  0.98672731  0.60544244     0.85300
C274        C  0.33455104  0.98798628  0.90978094     0.91600
O275        O  0.26612306  0.94944281  0.75857037    -0.72200
O276        O  0.39867316  0.95319186  0.75903953    -0.73100
O277        O  0.33381556  0.95125059  0.83319648    -0.61800
O278        O  0.33086232  0.95064445  0.68449217    -0.70200
O279        O  0.32767673  0.02374573  0.68213296    -0.69700
O280        O  0.33302480  0.02443895  0.83101412    -0.61000
O281        O  0.39618452  0.02629499  0.75563704    -0.73500
O282        O  0.26473387  0.02254280  0.75857926    -0.72300
Cu283      Cu  0.33247803  0.94853000  0.75889782     1.04600
Cu284      Cu  0.33035577  0.02676861  0.75667365     1.04300
C285        C  0.24462942  0.98563830  0.75885013     0.94000
C286        C  0.41820826  0.99048897  0.75771217     0.93200
C287        C  0.33394971  0.98787190  0.85548800     0.85300
C288        C  0.32839474  0.98707384  0.65987454     0.91600
O289        O  0.89530136  0.60544088  0.56115966    -0.72200
O290        O  0.90181298  0.60807516  0.91280505    -0.73100
O291        O  0.90343833  0.54080899  0.98810980    -0.61800
O292        O  0.89355364  0.67231101  0.48562020    -0.70200
O293        O  0.96636691  0.67416108  0.48976579    -0.69700
O294        O  0.97104926  0.54218683  0.48916702    -0.61000
O295        O  0.97469311  0.61063577  0.91395864    -0.73500
O296        O  0.96822380  0.60683085  0.56305768    -0.72300
Cu297      Cu  0.89954198  0.60713718  0.98693832     1.04600
Cu298      Cu  0.97131786  0.60825868  0.48910957     1.04300
C299        C  0.93175902  0.60633122  0.58551573     0.94000
C300        C  0.93806268  0.60979573  0.88993609     0.93200
C301        C  0.93536764  0.52009347  0.48869023     0.85300
C302        C  0.92936829  0.69406009  0.48915699     0.91600
O303        O  0.96767285  0.67684973  0.73315420    -0.72200
O304        O  0.97470954  0.54480309  0.74113393    -0.73100
O305        O  0.96917240  0.60893856  0.66318408    -0.61800
O306        O  0.97311647  0.61247059  0.81187081    -0.70200
O307        O  0.90034049  0.60806775  0.81225753    -0.69700
O308        O  0.89628585  0.60684287  0.66333075    -0.61000
O309        O  0.90186387  0.54151448  0.74047391    -0.73500
O310        O  0.89492176  0.67381926  0.73590457    -0.72300
Cu311      Cu  0.97369251  0.61095872  0.73729989     1.04600
Cu312      Cu  0.89578155  0.60745768  0.73798347     1.04300
C313        C  0.93042141  0.69615105  0.73379882     0.94000
C314        C  0.93925737  0.52236142  0.74170241     0.93200
C315        C  0.93229102  0.60730337  0.63986039     0.85300
C316        C  0.93723026  0.61029610  0.83549942     0.91600
O317        O  0.54769303  0.03239077  0.58431441    -0.72200
O318        O  0.55300050  0.03352492  0.93647709    -0.73100
O319        O  0.48792164  0.02965763  0.01066910    -0.61800
O320        O  0.61207881  0.03557967  0.51000512    -0.70200
O321        O  0.61605686  0.96256678  0.51120686    -0.69700
O322        O  0.49086986  0.95656791  0.01283443    -0.61000
O323        O  0.55485578  0.96037619  0.93769476    -0.73500
O324        O  0.55245295  0.95937057  0.58709159    -0.72300
Cu325      Cu  0.55372468  0.03518538  0.01116585     1.04600
Cu326      Cu  0.55040827  0.95587557  0.51276889     1.04300
C327        C  0.55086473  0.99607866  0.60912182     0.94000
C328        C  0.55364488  0.99713733  0.91364894     0.93200
C329        C  0.46159977  0.99017678  0.51127641     0.85300
C330        C  0.64217262  0.00033607  0.00964383     0.91600
O331        O  0.55499885  0.96006438  0.68825892    -0.72200
O332        O  0.55445008  0.96063279  0.83700166    -0.73100
O333        O  0.48886769  0.95693848  0.76065724    -0.61800
O334        O  0.62074340  0.96349612  0.76490339    -0.70200
O335        O  0.61753070  0.03649260  0.76068123    -0.69700
O336        O  0.48554195  0.03001791  0.75889629    -0.61000
O337        O  0.55200038  0.03376386  0.83460845    -0.73500
O338        O  0.55079173  0.03311962  0.68560533    -0.72300
Cu339      Cu  0.55493527  0.95775075  0.76279772     1.04600
Cu340      Cu  0.55136880  0.03591839  0.75991102     1.04300
C341        C  0.55240794  0.99645471  0.66350914     0.94000
C342        C  0.55327645  0.99725943  0.85923536     0.93200
C343        C  0.46643859  0.99251926  0.75905123     0.85300
C344        C  0.63998569  0.00089604  0.76320398     0.91600
N345        N  0.89912915  0.04661873  0.00225683    -0.35800
N346        N  0.99450334  0.04211132  0.99961966    -0.56400
N347        N  0.98932360  0.94737997  0.99849415    -0.35800
N348        N  0.89398819  0.95185525  0.99650319    -0.56400
C349        C  0.90953928  0.08907900  0.99176102     0.27800
C350        C  0.85614710  0.04124406  0.99005520     0.27800
C351        C  0.03149820  0.95419015  0.98554583     0.27800
C352        C  0.97824455  0.90640676  0.98434935     0.27800
C353        C  0.98925715  0.08449757  0.01218984     0.36400
C354        C  0.03701899  0.03194743  0.00952346     0.36400
C355        C  0.85196353  0.96098888  0.00755658     0.36400
C356        C  0.89989200  0.90843562  0.00658709     0.36400
C357        C  0.87272977  0.11096361  0.97245365    -0.21100
C358        C  0.83897235  0.08074406  0.97149478    -0.21100
C359        C  0.04735950  0.91727490  0.96257858    -0.21100
C360        C  0.01365220  0.88708035  0.96170852    -0.21100
C361        C  0.02855580  0.10131823  0.03043098    -0.22200
C362        C  0.05890359  0.06795052  0.02867225    -0.22200
C363        C  0.83105229  0.92324462  0.02479274    -0.22200
C364        C  0.86154126  0.88992711  0.02441723    -0.22200
C365        C  0.95047771  0.10907253  0.00292412    -0.17500
C366        C  0.83164980  0.00234664  0.99885227    -0.17500
C367        C  0.93832654  0.88493683  0.99551163    -0.17500
C368        C  0.05670477  0.99161483  0.99758296    -0.17500
H369        H  0.87025443  0.14530792  0.96098406     0.15400
H370        H  0.80549167  0.08723679  0.95917410     0.15400
H371        H  0.07999717  0.91239067  0.94857656     0.15400
H372        H  0.01528103  0.85432712  0.94690675     0.15400
H373        H  0.03486549  0.13436925  0.04290489     0.13700
H374        H  0.09321886  0.07012466  0.03957520     0.13700
H375        H  0.79730266  0.91998741  0.03609860     0.13700
H376        H  0.85589494  0.85587111  0.03525142     0.13700
H377        H  0.91877506  0.02417416  0.02227556     0.27000
H378        H  0.97106445  0.96715947  0.02139788     0.26900
N379        N  0.89234877  0.95242073  0.75150878    -0.35800
N380        N  0.98729153  0.94739687  0.74785307    -0.56400
N381        N  0.99200241  0.04198832  0.75472675    -0.35800
N382        N  0.89668470  0.04670035  0.75449936    -0.56400
C383        C  0.89819389  0.91144115  0.73444433     0.27800
C384        C  0.85023092  0.96389895  0.74114293     0.27800
C385        C  0.03331583  0.03166758  0.74166168     0.27800
C386        C  0.98473258  0.08455820  0.74080492     0.27800
C387        C  0.97718772  0.90453622  0.75580441     0.36400
C388        C  0.03007255  0.95191034  0.76093175     0.36400
C389        C  0.85489975  0.04035897  0.76885029     0.36400
C390        C  0.90757937  0.08810925  0.76684687     0.36400
C391        C  0.85949583  0.89682291  0.71238063    -0.21100
C392        C  0.82910616  0.93003608  0.71665967    -0.21100
C393        C  0.05263994  0.06801157  0.71892164    -0.21100
C394        C  0.02177531  0.10132408  0.71789875    -0.21100
C395        C  0.01361229  0.88162621  0.77417632    -0.22200
C396        C  0.04712994  0.91179086  0.77783407    -0.22200
C397        C  0.83927167  0.07768143  0.79117506    -0.22200
C398        C  0.87273796  0.10807120  0.78984434    -0.22200
C399        C  0.93627027  0.88567922  0.74306632    -0.17500
C400        C  0.82997755  0.00268752  0.75728258    -0.17500
C401        C  0.94684219  0.10909954  0.75243886    -0.17500
C402        C  0.05440252  0.99094917  0.75283548    -0.17500
H403        H  0.85351609  0.86514271  0.69599057     0.15400
H404        H  0.79515747  0.92905615  0.70404742     0.15400
H405        H  0.08555929  0.07029674  0.70473563     0.18000
H406        H  0.02644419  0.13435394  0.70291595     0.15400
H407        H  0.01584770  0.84681858  0.78356354     0.13700
H408        H  0.08041906  0.90477678  0.79045716     0.13700
H409        H  0.80691188  0.08280486  0.80581915     0.13700
H410        H  0.87131524  0.14130661  0.80332655     0.13700
H411        H  0.91400376  0.96912249  0.77481319     0.27000
H412        H  0.97193171  0.02261547  0.77723047     0.26900
O413        O  0.97869822  0.38830129  0.56949886    -0.72200
O414        O  0.98292165  0.38747718  0.92071437    -0.73100
O415        O  0.97956048  0.45343791  0.99314894    -0.61800
O416        O  0.98197396  0.32055266  0.49901665    -0.70200
O417        O  0.90908549  0.31702711  0.49810254    -0.69700
O418        O  0.90189858  0.44929376  0.49029210    -0.61000
O419        O  0.91014817  0.38269587  0.91978997    -0.73500
O420        O  0.90583215  0.38497066  0.56842296    -0.72300
Cu421      Cu  0.98577082  0.38764801  0.99538608     1.04600
Cu422      Cu  0.90283609  0.38302741  0.49403074     1.04300
C423        C  0.94238465  0.38719112  0.59234216     0.94000
C424        C  0.94631612  0.38511702  0.89682404     0.93200
C425        C  0.93735984  0.47177459  0.49006623     0.85300
C426        C  0.94656375  0.29808542  0.49989048     0.91600
O427        O  0.98167761  0.38747156  0.81923091    -0.72200
O428        O  0.97940559  0.38863269  0.67051173    -0.73100
O429        O  0.97845149  0.45446098  0.74363201    -0.61800
O430        O  0.98178681  0.32188341  0.74617743    -0.70200
O431        O  0.90896456  0.32014853  0.74397132    -0.69700
O432        O  0.90558878  0.45202495  0.74382558    -0.61000
O433        O  0.90648144  0.38739568  0.66963969    -0.73500
O434        O  0.90881507  0.38451220  0.81870791    -0.72300
Cu435      Cu  0.98289489  0.38820442  0.74489987     1.04600
Cu436      Cu  0.90492881  0.38600313  0.74408119     1.04300
C437        C  0.94559186  0.38561417  0.84240678     0.94000
C438        C  0.94274205  0.38794658  0.64666974     0.93200
C439        C  0.94128206  0.47405338  0.74328118     0.85300
C440        C  0.94584996  0.30011546  0.74516610     0.91600
C441        C  0.91514747  0.18149844  0.72103989     0.24400
C442        C  0.94775473  0.15828250  0.74885554    -0.23700
C443        C  0.98012809  0.18223936  0.77461168     0.19300
C444        C  0.98013660  0.22831211  0.77230217     0.24300
C445        C  0.94685579  0.25142079  0.74569411    -0.23700
C446        C  0.91416713  0.22755382  0.72033023     0.19200
F447        F  0.88154304  0.24877681  0.69421885    -0.13600
F448        F  0.88393961  0.15949798  0.69479612    -0.16000
F449        F  0.01173505  0.25034918  0.79784507    -0.16000
F450        F  0.01119878  0.16102554  0.80307387    -0.13600
C451        C  0.94800074  0.22735562  0.54883306     0.24400
C452        C  0.94873308  0.24977659  0.50263817    -0.23700
C453        C  0.98093898  0.22735049  0.97008524     0.19300
C454        C  0.97975440  0.18129676  0.97023568     0.24300
C455        C  0.95295919  0.15795769  0.00370448    -0.23700
C456        C  0.94683483  0.18125117  0.55114595     0.19200
F457        F  0.94561602  0.16002481  0.59606388    -0.13600
F458        F  0.94803086  0.25015757  0.59155223    -0.16000
F459        F  0.00397382  0.15945307  0.93699074    -0.16000
F460        F  0.00670905  0.24919052  0.93713515    -0.13600
C461        C  0.71352462  0.97171314  0.79163381     0.24400
C462        C  0.68854748  0.00281247  0.76359429    -0.23700
C463        C  0.71040627  0.03490049  0.73473871     0.19300
C464        C  0.75629419  0.03502948  0.73277532     0.24300
C465        C  0.78121582  0.00384766  0.76069458    -0.23700
C466        C  0.75941139  0.97254759  0.79060482     0.19200
F467        F  0.78268984  0.94249455  0.81853607    -0.13600
F468        F  0.69352314  0.94076898  0.82053020    -0.16000
F469        F  0.77638245  0.06481692  0.70245710    -0.16000
F470        F  0.68729410  0.06498443  0.70669587    -0.13600
C471        C  0.70623596  0.03466630  0.53557835     0.24400
C472        C  0.69040945  0.00258086  0.00576662    -0.23700
C473        C  0.71151110  0.98051258  0.96769903     0.19300
C474        C  0.75729332  0.98187969  0.96424718     0.24300
C475        C  0.78277145  0.00473723  0.99931929    -0.23700
C476        C  0.75220438  0.03432556  0.53769640     0.19200
F477        F  0.77350534  0.06372069  0.56673675    -0.13600
F478        F  0.68428409  0.06509986  0.56157742    -0.16000
F479        F  0.77691177  0.96045641  0.92703989    -0.16000
F480        F  0.68765473  0.95818572  0.93341205    -0.13600
C481        C  0.90683852  0.81253621  0.77197618     0.24400
C482        C  0.93293408  0.83709295  0.73897175    -0.23700
C483        C  0.95598192  0.81526724  0.70227889     0.19300
C484        C  0.95414138  0.76935115  0.69964100     0.24300
C485        C  0.92884933  0.74467662  0.73336163    -0.23700
C486        C  0.90446221  0.76666392  0.76888687     0.19200
F487        F  0.88005094  0.74355907  0.80211885    -0.13600
F488        F  0.88473950  0.83297392  0.80810724    -0.16000
F489        F  0.97677987  0.74892762  0.66395491    -0.16000
F490        F  0.98048524  0.83854956  0.66932821    -0.13600
C491        C  0.90663512  0.76828649  0.96140286     0.24400
C492        C  0.92830085  0.74236760  0.49495348    -0.23700
C493        C  0.95787892  0.76213159  0.52842809     0.19300
C494        C  0.95721287  0.80762827  0.53490626     0.24300
C495        C  0.93687344  0.83594339  0.99461353    -0.23700
C496        C  0.90725953  0.81430819  0.96270561     0.19200
F497        F  0.87939301  0.83782596  0.93226789    -0.13600
F498        F  0.87768050  0.74826238  0.93032261    -0.16000
F499        F  0.98616823  0.82562811  0.56755056    -0.16000
F500        F  0.98708439  0.73721238  0.55559883    -0.13600
C501        C  0.12736339  0.01525051  0.78794842     0.24400
C502        C  0.10341293  0.98899184  0.75469521    -0.23700
C503        C  0.12635712  0.96055977  0.72385337     0.19300
C504        C  0.17227124  0.95819144  0.72656239     0.24300
C505        C  0.19613597  0.98529069  0.75890437    -0.23700
C506        C  0.17330234  0.01375434  0.78965755     0.19200
F507        F  0.19553404  0.03953762  0.82207414    -0.13600
F508        F  0.10616426  0.04212692  0.81906834    -0.16000
F509        F  0.19350127  0.93065356  0.69619380    -0.16000
F510        F  0.10427206  0.93552337  0.69057216    -0.13600
C511        C  0.12974074  0.01492940  0.96406209     0.24400
C512        C  0.10550907  0.98854324  0.99720097    -0.23700
C513        C  0.12178960  0.95599067  0.53562505     0.19300
C514        C  0.16770750  0.95417801  0.53420104     0.24300
C515        C  0.19815011  0.98571912  0.99988470    -0.23700
C516        C  0.17567368  0.01384090  0.96571677     0.19200
F517        F  0.19826474  0.03985728  0.93346698    -0.13600
F518        F  0.10881261  0.04194754  0.93032247    -0.16000
F519        F  0.18953521  0.92467324  0.56432050    -0.16000
F520        F  0.10034942  0.92842781  0.56732469    -0.13600
loop_ 
_geom_bond_atom_site_label_1 
_geom_bond_atom_site_label_2 
_geom_bond_distance 
_geom_bond_site_symmetry_2 
_ccdc_geom_bond_type 
O1           Cu9   2.010       .  S
O1           C11   1.278   1_545  A
O2           Cu9   2.009       .  S
O2          C272   1.278   1_545  A
O3           Cu9   2.009       .  S
O3           C13   1.277   1_545  A
O4         Cu269   2.004       .  S
O4           C14   1.277   1_545  A
O5          Cu10   2.016       .  S
O5           C14   1.279       .  A
O6         Cu270   2.001       .  S
O6           C13   1.277       .  A
O7          Cu10   2.021       .  S
O7           C12   1.279       .  A
O8          Cu10   2.019       .  S
O8          C271   1.279       .  A
Cu9         O264   2.001   1_554  S
Cu9        Cu270   2.376   1_545  S
Cu10        O266   2.009       .  S
Cu10       Cu269   2.375   1_565  S
C11         O268   1.279       .  A
C11          C69   1.471       .  S
C12         O262   1.278   1_565  A
C12         C255   1.480       .  S
C13          C28   1.463       .  S
C14          C27   1.468       .  S
O15         Cu23   2.020       .  S
O15          C25   1.279       .  A
O16         Cu23   2.021       .  S
O16          C26   1.279       .  A
O17         Cu23   2.012       .  S
O17          C27   1.278       .  A
O18         Cu23   2.000       .  S
O18          C28   1.276       .  A
O19         Cu24   2.009       .  S
O19          C28   1.278   1_545  A
O20         Cu24   2.009       .  S
O20          C27   1.278   1_545  A
O21         Cu24   2.003       .  S
O21          C26   1.277   1_545  A
O22         Cu24   2.002       .  S
O22          C25   1.277   1_545  A
Cu23        Cu24   2.375   1_565  S
C25         C245   1.478       .  S
C26          C83   1.469       .  S
O29        Cu297   2.003   1_554  S
O29          C39   1.277       .  A
O30         Cu37   2.011       .  S
O30          C40   1.278       .  A
O31         Cu37   2.015       .  S
O31         C301   1.278       .  A
O32        Cu297   2.014       .  S
O32          C42   1.278       .  A
O33         Cu38   2.001       .  S
O33          C42   1.277       .  A
O34         Cu38   2.004       .  S
O34          C41   1.277       .  A
O35        Cu298   2.003       .  S
O35          C40   1.276       .  A
O36         Cu38   2.009   1_554  S
O36          C39   1.278       .  A
Cu37        O289   2.016       .  S
Cu37        O292   2.018       .  S
Cu37       Cu298   2.376       .  S
Cu38        O295   2.017       .  S
Cu38       Cu297   2.376       .  S
C39          C55   1.465       .  S
C40          C56   1.465       .  S
C41         O291   1.278       .  A
C41         C165   1.468       .  S
C42         C232   1.474       .  S
O43         Cu51   2.004       .  S
O43          C53   1.277       .  A
O44         Cu51   2.007       .  S
O44          C54   1.277       .  A
O45         Cu51   2.007       .  S
O45          C55   1.277       .  A
O46         Cu51   2.011       .  S
O46          C56   1.279       .  A
O47         Cu52   2.000       .  S
O47          C56   1.276       .  A
O48         Cu52   2.007       .  S
O48          C55   1.278       .  A
O49         Cu52   2.013       .  S
O49          C54   1.279       .  A
O50         Cu52   2.010       .  S
O50          C53   1.278       .  A
Cu51        Cu52   2.376       .  S
C53         C225   1.471       .  S
C54         C179   1.467       .  S
O57        Cu325   2.009       .  S
O57          C67   1.278   1_545  A
O58         Cu65   2.006       .  S
O58          C68   1.278   1_545  A
O59         Cu65   2.009       .  S
O59         C329   1.278   1_545  A
O60        Cu325   2.015       .  S
O60         C330   1.278       .  A
O61         Cu66   2.018       .  S
O61         C330   1.279   1_565  A
O62        Cu326   2.019       .  S
O62         C329   1.279       .  A
O63        Cu326   2.000       .  S
O63          C68   1.276       .  A
O64         Cu66   2.011       .  S
O64          C67   1.277       .  A
Cu65        O317   2.007       .  S
Cu65        O320   2.006       .  S
Cu65       Cu326   2.376   1_545  S
Cu66        O322   2.017       .  S
Cu66        O323   2.000   1_554  S
Cu66       Cu325   2.375   1_565  S
C67          C81   1.468       .  S
C68          C82   1.463       .  S
C69         O319   1.278   1_565  A
C69         O322   1.279       .  A
C70         O320   1.277       .  A
C70         O321   1.279   1_545  A
C70         C212   1.476       .  S
O71         Cu79   2.018       .  S
O71          C81   1.279       .  A
O72         Cu79   2.007       .  S
O72          C82   1.278       .  A
O73         Cu79   2.015       .  S
O73          C83   1.278       .  A
O74         Cu79   2.012       .  S
O74          C84   1.278       .  A
O75         Cu80   2.009       .  S
O75          C84   1.278   1_545  A
O76         Cu80   2.008       .  S
O76          C83   1.278   1_545  A
O77         Cu80   2.001       .  S
O77          C82   1.276   1_545  A
O78         Cu80   2.001       .  S
O78          C81   1.276   1_545  A
Cu79        Cu80   2.376   1_565  S
C84         C202   1.476       .  S
N85          C90   1.353       .  A
N85          C89   1.353       .  A
N85         H117   1.046       .  S
N86          C93   1.351       .  A
N86          C94   1.351   1_655  A
N87          C92   1.353       .  A
N87          C91   1.353   1_655  A
N87         H118   1.045       .  S
N88          C95   1.350       .  A
N88          C96   1.351       .  A
C89          C97   1.387       .  A
C89         C105   1.415       .  A
C90         C106   1.417       .  A
C90          C98   1.387       .  A
C91          C99   1.386       .  A
C91         C108   1.414       .  A
C92         C107   1.416       .  A
C92         C100   1.387   1_655  A
C93         C105   1.411       .  A
C93         C101   1.386   1_655  A
C94         C108   1.414   1_545  A
C94         C102   1.387       .  A
C95         C103   1.388       .  A
C95         C106   1.416   1_565  A
C96         C104   1.385       .  A
C96         C107   1.412       .  A
C97          C98   1.377       .  A
C97         H109   1.082       .  S
C98         H110   1.082       .  S
C99         C100   1.376       .  A
C99         H111   1.082       .  S
C100        H112   1.082       .  S
C101        C102   1.374       .  A
C101        H113   1.082       .  S
C102        H114   1.082       .  S
C103        C104   1.376       .  A
C103        H115   1.082       .  S
C104        H116   1.082       .  S
C105        C195   1.486       .  S
C106        C215   1.496       .  S
C107        C235   1.494       .  S
C108        C252   1.494       .  S
N119        C124   1.352       .  A
N119        C123   1.351       .  A
N119        H151   1.042       .  S
N120        C127   1.350       .  A
N120        C128   1.351   1_655  A
N121        C126   1.352       .  A
N121        C125   1.353   1_655  A
N121        H152   1.042       .  S
N122        C129   1.351       .  A
N122        C130   1.349       .  A
C123        C131   1.387       .  A
C123        C139   1.413       .  A
C124        C140   1.413       .  A
C124        C132   1.386       .  A
C125        C133   1.387       .  A
C125        C142   1.415   1_545  A
C126        C141   1.414       .  A
C126        C134   1.387   1_655  A
C127        C139   1.412       .  A
C127        C135   1.386   1_655  A
C128        C142   1.413       .  A
C128        C136   1.386       .  A
C129        C137   1.386       .  A
C129        C140   1.411   1_545  A
C130        C138   1.387       .  A
C130        C141   1.411       .  A
C131        C132   1.377       .  A
C131        H143   1.082       .  S
C132        H144   1.082       .  S
C133        C134   1.378       .  A
C133        H145   1.082       .  S
C134        H146   1.082       .  S
C135        C136   1.375       .  A
C135        H147   1.082       .  S
C136        H148   1.082       .  S
C137        C138   1.374       .  A
C137        H149   1.082       .  S
C138        H150   1.082       .  S
C139        C222   1.488       .  S
C140        C205   1.490       .  S
C141        C182   1.487       .  S
C142        C242   1.495       .  S
O153       Cu421   2.018   1_554  S
O153        C163   1.279       .  A
O154       Cu161   2.005       .  S
O154        C164   1.278       .  A
O155       Cu161   2.008       .  S
O155        C425   1.278       .  A
O156       Cu421   2.005       .  S
O156        C166   1.276       .  A
O157       Cu162   2.009       .  S
O157        C166   1.278       .  A
O158       Cu162   2.015       .  S
O158        C165   1.278       .  A
O159       Cu422   2.011       .  S
O159        C164   1.277       .  A
O160       Cu162   1.994   1_554  S
O160        C163   1.275       .  A
Cu161       O413   2.005       .  S
Cu161       O416   2.012       .  S
Cu161      Cu422   2.377       .  S
Cu162       O419   2.002       .  S
Cu162      Cu421   2.376       .  S
C163        C178   1.465       .  S
C164        C177   1.466       .  S
C165        O415   1.277       .  A
C166        C192   1.471   1_556  S
O167       Cu175   1.999       .  S
O167        C177   1.276       .  A
O168       Cu175   2.006       .  S
O168        C178   1.276       .  A
O169       Cu175   2.014       .  S
O169        C179   1.279       .  A
O170       Cu175   2.015       .  S
O170        C180   1.279       .  A
O171       Cu176   2.003       .  S
O171        C180   1.277       .  A
O172       Cu176   2.005       .  S
O172        C179   1.277       .  A
O173       Cu176   2.007       .  S
O173        C178   1.278       .  A
O174       Cu176   2.016       .  S
O174        C177   1.279       .  A
Cu175      Cu176   2.376       .  S
C180        C185   1.475       .  S
C181        C182   1.406       .  A
C181        C186   1.397       .  A
C181        F188   1.358       .  S
C182        C183   1.406       .  A
C183        C184   1.399       .  A
C183        F190   1.358   1_655  S
C184        C185   1.406       .  A
C184        F189   1.358   1_655  S
C185        C186   1.406       .  A
C186        F187   1.358       .  S
C191        C192   1.405       .  A
C191        C196   1.397       .  A
C191        F198   1.358       .  S
C192        C453   1.405   1_554  A
C193        C194   1.400       .  A
C193        C452   1.403       .  A
C193        F200   1.358       .  S
C194        C195   1.406       .  A
C194        F199   1.358       .  S
C195        C456   1.406       .  A
C196        C455   1.405       .  A
C196        F197   1.358       .  S
C201        C202   1.406       .  A
C201        C206   1.399       .  A
C201        F208   1.358       .  S
C202        C203   1.406   1_565  A
C203        C204   1.399       .  A
C203        F210   1.358       .  S
C204        C205   1.407   1_545  A
C204        F209   1.358       .  S
C205        C206   1.407       .  A
C206        F207   1.358       .  S
C211        C216   1.402       .  A
C211        C472   1.405       .  A
C211        F218   1.358       .  S
C212        C213   1.405   1_545  A
C212        C471   1.406       .  A
C213        C214   1.397       .  A
C213        F220   1.358       .  S
C214        C215   1.409   1_565  A
C214        F219   1.358       .  S
C215        C476   1.409       .  A
C216        C475   1.406   1_554  A
C216        F217   1.358       .  S
C221        C222   1.407       .  A
C221        C226   1.399       .  A
C221        F228   1.358       .  S
C222        C223   1.406       .  A
C223        C224   1.398       .  A
C223        F230   1.358       .  S
C224        C225   1.405       .  A
C224        F229   1.358       .  S
C225        C226   1.406       .  A
C226        F227   1.358       .  S
C231        C236   1.403       .  A
C231        C492   1.407       .  A
C231        F238   1.358       .  S
C232        C233   1.406   1_556  A
C232        C491   1.406       .  A
C233        C234   1.397       .  A
C233        F240   1.358       .  S
C234        C495   1.406   1_554  A
C234        F239   1.358       .  S
C235        C236   1.409       .  A
C235        C494   1.406       .  A
C236        F237   1.358       .  S
C241        C242   1.408   1_545  A
C241        C246   1.398       .  A
C241        F248   1.358       .  S
C242        C243   1.409       .  A
C243        C244   1.401       .  A
C243        F250   1.358       .  S
C244        C245   1.406       .  A
C244        F249   1.358       .  S
C245        C246   1.406   1_565  A
C246        F247   1.358       .  S
C251        C252   1.407   1_545  A
C251        C256   1.399       .  A
C251        F258   1.358       .  S
C252        C513   1.408       .  A
C253        C254   1.401       .  A
C253        C512   1.406   1_554  A
C253        F260   1.358       .  S
C254        C515   1.406   1_554  A
C254        F259   1.358       .  S
C255        C256   1.407   1_565  A
C255        C514   1.407       .  A
C256        F257   1.358       .  S
O261       Cu269   2.007       .  S
O261        C271   1.278   1_545  A
O262       Cu269   2.011       .  S
O263       Cu269   2.009       .  S
O263        C273   1.277   1_545  A
O264        C274   1.277   1_545  A
O265       Cu270   2.005   1_556  S
O265        C274   1.277       .  A
O266        C273   1.278       .  A
O267       Cu270   2.019       .  S
O267        C272   1.279       .  A
O268       Cu270   2.019       .  S
C271        C329   1.471       .  S
C272        C515   1.478   1_554  S
C273        C288   1.467       .  S
C274        C287   1.463       .  S
O275       Cu283   2.021       .  S
O275        C285   1.279       .  A
O276       Cu283   2.021       .  S
O276        C286   1.279       .  A
O277       Cu283   2.005       .  S
O277        C287   1.277       .  A
O278       Cu283   2.004       .  S
O278        C288   1.277       .  A
O279       Cu284   2.013       .  S
O279        C288   1.278   1_545  A
O280       Cu284   2.002       .  S
O280        C287   1.277   1_545  A
O281       Cu284   2.006       .  S
O281        C286   1.277   1_545  A
O282       Cu284   2.005       .  S
O282        C285   1.277   1_545  A
Cu283      Cu284   2.376   1_565  S
C285        C505   1.477       .  S
C286        C343   1.470       .  S
O289        C299   1.279       .  A
O290       Cu297   2.000       .  S
O290        C300   1.276       .  A
O291       Cu297   2.017       .  S
O292        C302   1.278       .  A
O293       Cu298   2.007       .  S
O293        C302   1.278       .  A
O294       Cu298   2.006       .  S
O294        C301   1.277       .  A
O295        C300   1.279       .  A
O296       Cu298   1.996       .  S
O296        C299   1.276       .  A
C299        C315   1.465       .  S
C300        C316   1.466       .  S
C301        C425   1.468       .  S
C302        C492   1.479       .  S
O303       Cu311   2.009       .  S
O303        C313   1.278       .  A
O304       Cu311   2.009       .  S
O304        C314   1.277       .  A
O305       Cu311   2.001       .  S
O305        C315   1.277       .  A
O306       Cu311   2.011       .  S
O306        C316   1.278       .  A
O307       Cu312   2.004       .  S
O307        C316   1.277       .  A
O308       Cu312   2.012       .  S
O308        C315   1.278       .  A
O309       Cu312   2.010       .  S
O309        C314   1.278       .  A
O310       Cu312   2.014       .  S
O310        C313   1.278       .  A
Cu311      Cu312   2.376       .  S
C313        C485   1.474       .  S
C314        C439   1.468       .  S
O317        C327   1.277   1_545  A
O318       Cu325   2.014   1_556  S
O318        C328   1.278   1_545  A
O319       Cu325   2.011       .  S
O321       Cu326   2.011       .  S
O323        C328   1.277       .  A
O324       Cu326   2.008       .  S
O324        C327   1.277       .  A
C327        C341   1.465       .  S
C328        C342   1.466       .  S
C330        C472   1.477       .  S
O331       Cu339   2.008       .  S
O331        C341   1.278       .  A
O332       Cu339   2.004       .  S
O332        C342   1.277       .  A
O333       Cu339   2.012       .  S
O333        C343   1.278       .  A
O334       Cu339   2.012       .  S
O334        C344   1.278   1_565  A
O335       Cu340   2.015       .  S
O335        C344   1.279       .  A
O336       Cu340   2.013       .  S
O336        C343   1.279   1_545  A
O337       Cu340   2.012       .  S
O337        C342   1.278   1_545  A
O338       Cu340   2.006       .  S
O338        C341   1.277   1_545  A
Cu339      Cu340   2.375   1_565  S
C344        C462   1.480       .  S
N345        C350   1.354   1_554  A
N345        C349   1.352   1_554  A
N345        H377   1.040       .  S
N346        C353   1.349   1_556  A
N346        C354   1.351   1_656  A
N347        C352   1.351       .  A
N347        C351   1.353   1_655  A
N347        H378   1.041   1_556  S
N348        C355   1.351   1_556  A
N348        C356   1.351   1_556  A
C349        C357   1.388       .  A
C349        C365   1.417   1_556  A
C350        C366   1.415       .  A
C350        C358   1.386       .  A
C351        C359   1.386       .  A
C351        C368   1.412       .  A
C352        C367   1.414       .  A
C352        C360   1.388   1_655  A
C353        C365   1.412       .  A
C353        C361   1.387   1_655  A
C354        C368   1.411   1_544  A
C354        C362   1.386       .  A
C355        C363   1.386       .  A
C355        C366   1.412   1_564  A
C356        C364   1.386       .  A
C356        C367   1.412   1_554  A
C357        C358   1.379       .  A
C357        H369   1.082       .  S
C358        H370   1.082       .  S
C359        C360   1.377       .  A
C359        H371   1.082       .  S
C360        H372   1.082       .  S
C361        C362   1.374       .  A
C361        H373   1.082       .  S
C362        H374   1.082       .  S
C363        C364   1.374       .  A
C363        H375   1.082       .  S
C364        H376   1.082       .  S
C365        C455   1.487       .  S
C366        C475   1.491       .  S
C367        C495   1.489       .  S
C368        C512   1.490       .  S
N379        C384   1.351       .  A
N379        C383   1.350       .  A
N379        H411   1.042       .  S
N380        C387   1.350       .  A
N380        C388   1.351   1_655  A
N381        C386   1.354       .  A
N381        C385   1.353   1_655  A
N381        H412   1.042       .  S
N382        C389   1.351       .  A
N382        C390   1.348       .  A
C383        C391   1.387       .  A
C383        C399   1.411       .  A
C384        C400   1.412   1_565  A
C384        C392   1.387       .  A
C385        C393   1.386       .  A
C385        C402   1.416   1_545  A
C386        C401   1.419       .  A
C386        C394   1.388   1_655  A
C387        C399   1.411       .  A
C387        C395   1.385   1_655  A
C388        C402   1.413       .  A
C388        C396   1.387       .  A
C389        C397   1.385       .  A
C389        C400   1.411       .  A
C390        C398   1.387       .  A
C390        C401   1.412       .  A
C391        C392   1.377       .  A
C391        H403   1.082       .  S
C392        H404   1.082       .  S
C393        C394   1.380       .  A
C393        H405   1.082       .  S
C394        H406   1.082       .  S
C395        C396   1.375       .  A
C395        H407   1.082       .  S
C396        H408   1.082       .  S
C397        C398   1.376       .  A
C397        H409   1.082       .  S
C398        H410   1.082       .  S
C399        C482   1.485       .  S
C400        C465   1.491       .  S
C401        C442   1.494       .  S
C402        C502   1.494       .  S
O413        C423   1.277       .  A
O414       Cu421   2.012       .  S
O414        C424   1.279       .  A
O415       Cu421   2.006       .  S
O416        C426   1.277       .  A
O417       Cu422   2.013       .  S
O417        C426   1.278       .  A
O418       Cu422   2.012       .  S
O418        C425   1.278       .  A
O419        C424   1.276       .  A
O420       Cu422   2.007       .  S
O420        C423   1.277       .  A
C423        C438   1.464       .  S
C424        C437   1.466       .  S
C426        C452   1.468       .  S
O427       Cu435   2.003       .  S
O427        C437   1.276       .  A
O428       Cu435   2.005       .  S
O428        C438   1.277       .  A
O429       Cu435   2.016       .  S
O429        C439   1.279       .  A
O430       Cu435   2.013       .  S
O430        C440   1.279       .  A
O431       Cu436   2.003       .  S
O431        C440   1.277       .  A
O432       Cu436   2.005       .  S
O432        C439   1.277       .  A
O433       Cu436   2.007       .  S
O433        C438   1.277       .  A
O434       Cu436   2.011       .  S
O434        C437   1.279       .  A
Cu435      Cu436   2.376       .  S
C440        C445   1.479       .  S
C441        C442   1.410       .  A
C441        C446   1.398       .  A
C441        F448   1.358       .  S
C442        C443   1.407       .  A
C443        C444   1.399       .  A
C443        F450   1.358   1_655  S
C444        C445   1.406       .  A
C444        F449   1.358   1_655  S
C445        C446   1.407       .  A
C446        F447   1.358       .  S
C451        C452   1.404       .  A
C451        C456   1.400       .  A
C451        F458   1.358       .  S
C453        C454   1.399       .  A
C453        F460   1.358   1_655  S
C454        C455   1.407   1_556  A
C454        F459   1.358   1_655  S
C456        F457   1.358       .  S
C461        C462   1.407   1_565  A
C461        C466   1.399       .  A
C461        F468   1.358       .  S
C462        C463   1.408       .  A
C463        C464   1.400       .  A
C463        F470   1.358       .  S
C464        C465   1.406       .  A
C464        F469   1.358       .  S
C465        C466   1.406   1_545  A
C466        F467   1.358       .  S
C471        C476   1.400       .  A
C471        F478   1.358       .  S
C472        C473   1.406   1_544  A
C473        C474   1.400       .  A
C473        F480   1.358       .  S
C474        C475   1.407   1_565  A
C474        F479   1.358       .  S
C476        F477   1.358       .  S
C481        C482   1.406       .  A
C481        C486   1.399       .  A
C481        F488   1.358       .  S
C482        C483   1.404       .  A
C483        C484   1.399       .  A
C483        F490   1.357       .  S
C484        C485   1.406       .  A
C484        F489   1.357       .  S
C485        C486   1.406       .  A
C486        F487   1.358       .  S
C491        C496   1.399       .  A
C491        F498   1.358       .  S
C492        C493   1.407       .  A
C493        C494   1.397       .  A
C493        F500   1.358       .  S
C494        F499   1.357       .  S
C495        C496   1.407       .  A
C496        F497   1.358       .  S
C501        C502   1.407   1_545  A
C501        C506   1.400       .  A
C501        F508   1.358       .  S
C502        C503   1.409       .  A
C503        C504   1.401       .  A
C503        F510   1.358       .  S
C504        C505   1.405       .  A
C504        F509   1.358       .  S
C505        C506   1.406   1_565  A
C506        F507   1.358       .  S
C511        C512   1.406   1_545  A
C511        C516   1.399       .  A
C511        F518   1.358       .  S
C513        C514   1.401       .  A
C513        F520   1.358       .  S
C514        F519   1.358       .  S
C515        C516   1.407   1_565  A
C516        F517   1.358       .  S
