geometry optimzed in LAMMPS
_audit_creation_date              2020-11-30 
_audit_creation_method            'lammps2cif' 
_symmetry_space_group_name_H-M    'P1' 
_symmetry_Int_Tables_number       1 
_symmetry_cell_setting            triclinic 
loop_ 
_symmetry_equiv_pos_as_xyz 
  x,y,z 
_cell_length_a                    45.24669765 
_cell_length_b                    45.53725043869192 
_cell_length_c                    31.475827080601068 
_cell_angle_alpha                 87.56883500296755 
_cell_angle_beta                  89.29811308096414 
_cell_angle_gamma                 90.37560249879061 
loop_ 
_atom_site_label 
_atom_site_type_symbol 
_atom_site_fract_x 
_atom_site_fract_y 
_atom_site_fract_z 
_atom_site_charge 
C1          C  0.16310569  0.36801085  0.07095564     0.87000
C2          C  0.15617714  0.33947803  0.04873208    -0.53200
C3          C  0.13200452  0.33981394  0.52229056     0.09900
C4          C  0.11539630  0.37018596  0.52280456     0.20900
C5          C  0.16416679  0.39157763  0.03446065    -0.53900
C6          C  0.13905622  0.39486192  0.51064998     0.10100
C7          C  0.13370131  0.37474188  0.09450089    -0.53500
C8          C  0.10832911  0.37505846  0.07048077     0.10600
H9          H  0.16963772  0.32018451  0.55373156     0.15100
H10         H  0.09554408  0.37087911  0.50247482     0.00900
H11         H  0.18275900  0.40650581  0.53082540     0.15400
H12         H  0.13330263  0.37813759  0.12783422     0.15200
C13         C  0.14945660  0.37884808  0.25621467     0.87000
C14         C  0.14656439  0.35133374  0.23028956    -0.53200
C15         C  0.12450798  0.35101225  0.20074716     0.09900
C16         C  0.10530879  0.38006045  0.20252278     0.20900
C17         C  0.15081958  0.40448360  0.22243236    -0.53900
C18         C  0.12751607  0.40686803  0.19552422     0.10100
C19         C  0.11871569  0.38168692  0.27757509    -0.53500
C20         C  0.09530535  0.38205348  0.24995286     0.10600
H21         H  0.16150926  0.33314318  0.23480754     0.15100
H22         H  0.08658547  0.38023909  0.18068516     0.00900
H23         H  0.16867976  0.42052125  0.22082558     0.15400
H24         H  0.11570728  0.38274323  0.31174675     0.15200
C25         C  0.40740651  0.11787722  0.50578850     0.87000
C26         C  0.40355804  0.14378323  0.03460905    -0.53200
C27         C  0.38002297  0.14302644  0.06271935     0.09900
C28         C  0.36093386  0.11416470  0.05750551     0.20900
C29         C  0.40727441  0.09076484  0.03718911    -0.53900
C30         C  0.38330653  0.08738000  0.06386224     0.10100
C31         C  0.37730630  0.11648252  0.48275879    -0.53500
C32         C  0.35255668  0.11502492  0.50901494     0.10600
H33         H  0.41869631  0.16218328  0.03178603     0.15100
H34         H  0.34136466  0.11272590  0.07890870     0.00900
H35         H  0.42506574  0.07502310  0.03835082     0.15400
H36         H  0.37570722  0.11831978  0.44836761     0.15200
C37         C  0.40456651  0.13030486  0.19466551     0.87000
C38         C  0.39910631  0.15905245  0.21740467    -0.53200
C39         C  0.37503043  0.15930980  0.24465144     0.09900
C40         C  0.35715529  0.12934923  0.24490131     0.20900
C41         C  0.40524664  0.10682210  0.23082135    -0.53900
C42         C  0.38060455  0.10446172  0.25631580     0.10100
C43         C  0.37476759  0.12385876  0.17246472    -0.53500
C44         C  0.34938405  0.12466098  0.19722715     0.10600
H45         H  0.41356950  0.17797286  0.21300601     0.15100
H46         H  0.33749904  0.12889553  0.26635239     0.00900
H47         H  0.42323042  0.09123761  0.23327250     0.15400
H48         H  0.37400586  0.11851069  0.13962927     0.15200
C49         C  0.03146435  0.34849368  0.11185707     0.03700
C50         C  0.02162742  0.37155402  0.13479486    -0.12500
C51         C  0.03784571  0.39745460  0.13422823     0.01200
C52         C  0.06547005  0.39989282  0.11139058    -0.11000
C53         C  0.07709055  0.37585005  0.08975805     0.03700
C54         C  0.05888647  0.35091115  0.08863284    -0.10400
H55         H  0.50099303  0.36948936  0.15261709     0.09300
H56         H  0.07769149  0.42027607  0.11011265     0.06800
H57         H  0.06723077  0.33251713  0.07149028     0.06600
C58         C  0.02020670  0.35582887  0.29475568     0.03700
C59         C  0.04796579  0.35623693  0.27368904    -0.12500
C60         C  0.06352987  0.38295480  0.26541354     0.01200
C61         C  0.05049974  0.40942400  0.27901303    -0.11000
C62         C  0.02241606  0.40898246  0.29990013     0.03700
C63         C  0.00746581  0.38222424  0.30612124    -0.10400
H64         H  0.05862000  0.33562993  0.26719774     0.09300
H65         H  0.06303623  0.42977328  0.27614019     0.06800
H66         H  0.48697938  0.38152385  0.32448283     0.06600
C67         C  0.40500995  0.20897704  0.12680126     0.03700
C68         C  0.40373527  0.18256582  0.10481993    -0.12500
C69         C  0.37737473  0.16812713  0.09459010     0.01200
C70         C  0.35129331  0.17961184  0.11334621    -0.11000
C71         C  0.35307591  0.20501151  0.13934034     0.03700
C72         C  0.37984453  0.21940236  0.14506921    -0.10400
H73         H  0.42425622  0.17344968  0.09433738     0.09300
H74         H  0.33004441  0.16989873  0.10670249     0.06800
H75         H  0.38089257  0.23942487  0.16250319     0.06600
C76         C  0.39372459  0.22714178  0.30893250     0.03700
C77         C  0.39570737  0.20056012  0.28772033    -0.12500
C78         C  0.37024090  0.18606181  0.27231997     0.01200
C79         C  0.34206817  0.19812973  0.28324198    -0.11000
C80         C  0.34041640  0.22492233  0.30576797     0.03700
C81         C  0.36644076  0.23958027  0.31558463    -0.10400
H82         H  0.41737642  0.19103931  0.28358798     0.09300
H83         H  0.32197448  0.18669993  0.27523682     0.06800
H84         H  0.36535899  0.25956700  0.33318984     0.06600
C85         C  0.22896916  0.39755132  0.13781396     0.03700
C86         C  0.20426596  0.39522021  0.11085842    -0.12500
C87         C  0.19198611  0.36812655  0.09965618     0.01200
C88         C  0.20886469  0.34299642  0.11321021    -0.11000
C89         C  0.23333848  0.34554740  0.14151565     0.03700
C90         C  0.24201164  0.37267867  0.15498021    -0.10400
H91         H  0.19569582  0.41476001  0.09601890     0.09300
H92         H  0.20322374  0.32148561  0.10280325     0.06800
H93         H  0.26136933  0.37459574  0.17475783     0.06600
C94         C  0.21962610  0.35534277  0.32233599     0.03700
C95         C  0.23122195  0.38296538  0.33044278    -0.12500
C96         C  0.21573877  0.40835862  0.31852744     0.01200
C97         C  0.18815495  0.40606267  0.29852463    -0.11000
C98         C  0.17675832  0.37891784  0.28621726     0.03700
C99         C  0.19273424  0.35329263  0.29963884    -0.10400
H100        H  0.25159589  0.38459930  0.34798979     0.09300
H101        H  0.17584456  0.42591096  0.29121652     0.06800
H102        H  0.18394504  0.33162947  0.29459579     0.06600
C103        C  0.35051785  0.02067437  0.13144719     0.03700
C104        C  0.37444157  0.01068472  0.15433500    -0.12500
C105        C  0.40221881  0.02081807  0.14290329     0.01200
C106        C  0.40559934  0.04508154  0.11278977    -0.11000
C107        C  0.38067149  0.05987721  0.09466488     0.03700
C108        C  0.35366361  0.04491425  0.10119853    -0.10400
H109        H  0.37200221  0.49189124  0.17642011     0.09300
H110        H  0.42761769  0.05188705  0.10323831     0.06800
H111        H  0.33620807  0.05109178  0.08004406     0.06600
C112        C  0.34523390  0.03541759  0.31269983     0.03700
C113        C  0.36991548  0.02083092  0.32904569    -0.12500
C114        C  0.39785703  0.03339926  0.32407353     0.01200
C115        C  0.40119314  0.06120661  0.30235164    -0.11000
C116        C  0.37656780  0.07662694  0.28476285     0.03700
C117        C  0.34870051  0.06315624  0.29036531    -0.10400
H118        H  0.36733535  0.50010406  0.34707277     0.09300
H119        H  0.42311981  0.07080335  0.29963149     0.06800
H120        H  0.32960785  0.07424840  0.27707756     0.06600
C121        C  0.46762130  0.09726831  0.12634155     0.03700
C122        C  0.48432173  0.12093241  0.11188977    -0.12500
C123        C  0.47893550  0.14792987  0.12831720     0.01200
C124        C  0.45424242  0.15199025  0.15650419    -0.11000
C125        C  0.43319669  0.12884940  0.16536694     0.03700
C126        C  0.44103286  0.10150136  0.14974751    -0.10400
H127        H  0.00423790  0.11763706  0.09313724     0.09300
H128        H  0.45139970  0.17323707  0.16978762     0.06800
H129        H  0.42812090  0.08265535  0.16071058     0.06600
C130        C  0.48040535  0.09848847  0.44355827     0.03700
C131        C  0.49211119  0.12644213  0.43166021    -0.12500
C132        C  0.47600276  0.15195122  0.44072818     0.01200
C133        C  0.44789498  0.14867685  0.46203869    -0.11000
C134        C  0.43626282  0.12111544  0.47694180     0.03700
C135        C  0.45299691  0.09651518  0.46653370    -0.10400
H136        H  0.01262955  0.12825004  0.41363974     0.09300
H137        H  0.43464250  0.16796350  0.46654456     0.06800
H138        H  0.44388293  0.07508245  0.47504910     0.06600
O139        O  0.43870774  0.00643754  0.19324704    -0.78000
C140        C  0.52326809  0.51557312  0.26439945     0.83100
O141        O  0.00160443  0.06045671  0.10261226    -0.79100
O142        O  0.06669612  0.50811214  0.16537414    -0.80600
O143        O  0.49618852  0.42502605  0.15652698    -0.80400
O144        O  0.43682376  0.48312117  0.13285799    -0.79000
Zn145      Zn  0.48054011  0.01736138  0.18994527     1.55700
O146        O  0.04155892  0.44175705  0.16843928    -0.80400
Cd147      Cd  0.47778315  0.46318019  0.13181252     1.59700
Cd148      Cd  0.01671062  0.01700554  0.10013145     1.59600
O149        O  0.48017478  0.45574874  0.06784183    -0.80400
O150        O  0.50208317  0.99535536  0.15257202    -1.90900
Cd151      Cd  0.03481116  0.48269631  0.18885208     1.59900
O152        O  0.99530657  0.00071589  0.04806169    -0.80300
O153        O  0.03829922  0.49431159  0.25111209    -0.79000
C154        C  0.48205801  0.06877938  0.12929835     0.83600
C155        C  0.42711092  0.00250804  0.15732033     0.83200
O156        O  0.50134615  0.02561992  0.24356602    -0.77900
C157        C  0.02440355  0.42235056  0.15505224     0.84000
O158        O  0.47485048  0.05341522  0.16179329    -0.78000
C159        C  0.98390610  0.97597915  0.03958588     0.84100
C160        C  0.07573818  0.49816058  0.13117178     0.84500
O161        O  0.06147917  0.00368735  0.09698651    -0.80500
O162        O  0.42672966  0.01725571  0.38339725    -0.78000
C163        C  0.47584306  0.47197899  0.49541177     0.83100
O164        O  0.01953020  0.06578343  0.41602690    -0.79100
O165        O  0.05149086  0.45438689  0.43566463    -0.80600
O166        O  0.50531115  0.45869312  0.30757886    -0.80400
O167        O  0.44294643  0.50750131  0.31859446    -0.79000
Zn168      Zn  0.46379489  0.01010605  0.41896759     1.55700
O169        O  0.00812073  0.42836290  0.36563077    -0.80400
Cd170      Cd  0.48532130  0.49595750  0.33466067     1.59700
Cd171      Cd  0.03447704  0.02304677  0.39483699     1.59600
O172        O  0.50411724  0.53564873  0.32376082    -0.80400
O173        O  0.49793322  0.99579673  0.39357930    -1.90900
Cd174      Cd  0.00832938  0.45659543  0.41616345     1.59900
O175        O  0.04935665  0.02250136  0.33025920    -0.80300
O176        O  0.98693937  0.45085044  0.47503540    -0.79000
C177        C  0.49275286  0.07020536  0.42851986     0.83600
C178        C  0.42354756  0.01811154  0.34310060     0.83200
O179        O  0.46255177  0.99343481  0.47725756    -0.77900
C180        C  0.01150560  0.43362890  0.32540818     0.84000
O181        O  0.47403789  0.04963264  0.42868802    -0.78000
C182        C  0.02720375  0.02703459  0.30664882     0.84100
C183        C  0.07143016  0.47350483  0.44142465     0.84500
O184        O  0.06746997  0.00091672  0.43131711    -0.80500
C185        C  0.10043301  0.47739949  0.13290433     0.03700
C186        C  0.10227257  0.45384689  0.16448691    -0.12500
C187        C  0.12564681  0.43354171  0.16412801     0.01200
C188        C  0.15056658  0.44285665  0.13983718    -0.11000
C189        C  0.15003292  0.46812756  0.11177623     0.03700
C190        C  0.12406871  0.48337102  0.10566522    -0.10400
H191        H  0.08696716  0.45214942  0.19088545     0.09300
H192        H  0.17125403  0.43258138  0.14711980     0.06800
H193        H  0.12366668  0.00243493  0.08381717     0.06600
C194        C  0.10077698  0.46309453  0.45695490     0.03700
C195        C  0.10511965  0.43463065  0.47650787    -0.12500
C196        C  0.13396290  0.42387402  0.48512101     0.01200
C197        C  0.15829648  0.44236220  0.47170665    -0.11000
C198        C  0.15402626  0.47074832  0.45292292     0.03700
C199        C  0.12534587  0.48087486  0.44690746    -0.10400
H200        H  0.08605027  0.42112065  0.48517642     0.09300
H201        H  0.18072788  0.43451198  0.47401889     0.06800
H202        H  0.12226901  0.00226609  0.43107059     0.06600
O203        O  0.19798367  0.46527451  0.08562786    -0.78000
C204        C  0.27174749  0.98674826  0.99782490     0.83100
O205        O  0.24903262  0.43961629  0.17125255    -0.79100
O206        O  0.31594448  0.99090322  0.09971105    -0.80600
O207        O  0.24261742  0.06949990  0.10834820    -0.80400
O208        O  0.18194008  0.00971350  0.10366161    -0.79000
Zn209      Zn  0.24016318  0.46849460  0.07751204     1.55700
O210        O  0.28863691  0.05386818  0.09941740    -0.80400
Cd211      Cd  0.22089078  0.02943477  0.12470402     1.59700
Cd212      Cd  0.26482804  0.48332884  0.16926246     1.59600
O213        O  0.21229515  0.03587384  0.18932532    -0.80400
O214        O  0.25004182  0.49895841  0.11359750    -1.90900
Cd215      Cd  0.28226969  0.01384217  0.07953547     1.59900
O216        O  0.24458971  0.50479593  0.21888899    -0.80300
O217        O  0.28200747  0.00861130  0.01664033    -0.79000
C218        C  0.24597900  0.42486610  0.13792882     0.83600
C219        C  0.17778155  0.48219605  0.09776736     0.83200
O220        O  0.25444926  0.46834271  0.01669208    -0.77900
C221        C  0.27082439  0.07331896  0.10986468     0.84000
O222        O  0.25717037  0.43376124  0.10285137    -0.78000
C223        C  0.22482924  0.52449861  0.22199929     0.84100
C224        C  0.32433858  0.00172988  0.13359910     0.84500
O225        O  0.30926594  0.49764237  0.16800767    -0.80500
O226        O  0.17407520  0.49848516  0.39393960    -0.78000
C227        C  0.21727788  0.03342424  0.26525488     0.83100
O228        O  0.25407228  0.44234068  0.33606244    -0.79100
O229        O  0.29514391  0.04318175  0.32102256    -0.80600
O230        O  0.24347559  0.06103310  0.44774552    -0.80400
O231        O  0.20324016  0.99203768  0.45042156    -0.79000
Zn232      Zn  0.20482597  0.49893323  0.34691540     1.55700
O233        O  0.26526099  0.07881324  0.38816178    -0.80400
Cd234      Cd  0.23742468  0.02016553  0.42563597     1.59700
Cd235      Cd  0.27145230  0.47838018  0.36636306     1.59600
O236        O  0.27995725  0.01002063  0.43349003    -0.80400
O237        O  0.24107473  0.51131102  0.36661610    -1.90900
Cd238      Cd  0.25393018  0.04864022  0.34099892     1.59900
O239        O  0.27501848  0.46338302  0.43068995    -0.80300
O240        O  0.23362033  0.05282051  0.28198168    -0.79000
C241        C  0.22656918  0.43739668  0.33045133     0.83600
C242        C  0.17849045  0.48810521  0.43185763     0.83200
O243        O  0.19995865  0.51633061  0.28742184    -0.77900
C244        C  0.26127989  0.07898470  0.42861598     0.84000
O245        O  0.20730141  0.45702194  0.33563798    -0.78000
C246        C  0.27778509  0.48577154  0.45272448     0.84100
C247        C  0.31543861  0.02439096  0.32467062     0.84500
O248        O  0.31090177  0.49835758  0.34119993    -0.80500
C249        C  0.27220372  0.14696227  0.15257907     0.03700
C250        C  0.29645841  0.14442812  0.18173188    -0.12500
C251        C  0.31821443  0.12234165  0.17767371     0.01200
C252        C  0.31047979  0.09915898  0.15123647    -0.11000
C253        C  0.28359730  0.09971586  0.12769381     0.03700
C254        C  0.26666420  0.12469843  0.12564192    -0.10400
H255        H  0.29907581  0.15971767  0.20662108     0.09300
H256        H  0.32459117  0.08018020  0.15088060     0.06800
H257        H  0.24733537  0.12573500  0.10552690     0.06600
C258        C  0.27717073  0.10096751  0.45351361     0.03700
C259        C  0.26475970  0.12857306  0.45414008    -0.12500
C260        C  0.28049923  0.15229219  0.46900308     0.01200
C261        C  0.30852497  0.14751053  0.48828433    -0.11000
C262        C  0.32123294  0.11905614  0.49146197     0.03700
C263        C  0.30536261  0.09587900  0.47250816    -0.10400
H264        H  0.24382497  0.13214104  0.43831810     0.09300
H265        H  0.32108951  0.16612090  0.49883132     0.06800
H266        H  0.31517194  0.07428665  0.47151342     0.06600
O267        O  0.06983589  0.26926503  0.07301727    -0.78000
C268        C  0.98218973  0.26526540  0.99860508     0.83100
O269        O  0.49499308  0.31270722  0.14115691    -0.79100
O270        O  0.45101260  0.21629479  0.09913445    -0.80600
O271        O  0.01584938  0.18205878  0.14563275    -0.80400
O272        O  0.07158003  0.24930768  0.13906746    -0.79000
Zn273      Zn  0.02685839  0.26746072  0.06672587     1.55700
O274        O  0.50229066  0.18072998  0.07810143    -0.80400
Cd275      Cd  0.03537341  0.22300339  0.14725330     1.59700
Cd276      Cd  0.48200040  0.26744487  0.15218256     1.59600
O277        O  0.03373096  0.22562551  0.21231224    -0.80400
O278        O  0.00763178  0.24626162  0.11198009    -1.90900
Cd279      Cd  0.48820277  0.22218591  0.07168424     1.59900
O280        O  0.49456345  0.25461413  0.21445785    -0.80300
O281        O  0.47325998  0.24092887  0.01523601    -0.79000
C282        C  0.01507593  0.32055789  0.11354212     0.83600
C283        C  0.07988886  0.26848064  0.11077698     0.83200
O284        O  0.00532450  0.27747981  0.01217623    -0.77900
C285        C  0.50044221  0.17110581  0.11663944     0.84000
O286        O  0.02463395  0.30326054  0.08737903    -0.78000
C287        C  0.51436008  0.23891895  0.23316409     0.84100
C288        C  0.43278963  0.22605844  0.12503934     0.84500
O289        O  0.43833384  0.24908231  0.14605162    -0.80500
O290        O  0.44273555  0.26748299  0.44918373    -0.78000
C291        C  0.41920549  0.24007404  0.33037788     0.83100
O292        O  0.00810344  0.18778434  0.40017227    -0.79100
O293        O  0.48604305  0.23555683  0.29387159    -0.80600
O294        O  0.01208011  0.32774242  0.35778995    -0.80400
O295        O  0.97334059  0.30480331  0.44880430    -0.79000
Zn296      Zn  0.45841889  0.23954085  0.40754225     1.55700
O297        O  0.49545106  0.30881860  0.29815637    -0.80400
Cd298      Cd  0.00549720  0.29596499  0.40547901     1.59700
Cd299      Cd  0.02567325  0.23031443  0.37460266     1.59600
O300        O  0.04511472  0.29126526  0.43527128    -0.80400
O301        O  0.49222110  0.25867403  0.38097397    -1.90900
Cd302      Cd  0.47515584  0.27052592  0.32533396     1.59900
O303        O  0.06207327  0.24910232  0.41047896    -0.80300
O304        O  0.43028366  0.26466732  0.31714860    -0.79000
C305        C  0.48582468  0.18240359  0.42561968     0.83600
C306        C  0.46424634  0.28062048  0.46588845     0.83200
O307        O  0.42899069  0.22679582  0.36360233    -0.77900
C308        C  0.00879176  0.32905370  0.31757346     0.84000
O309        O  0.46942055  0.20305587  0.43750716    -0.78000
C310        C  0.06560450  0.27249592  0.43211976     0.84100
C311        C  0.01194663  0.23473371  0.27974508     0.84500
O312        O  0.03357575  0.23208042  0.30578518    -0.80500
C313        C  0.10364231  0.28816090  0.12225824     0.03700
C314        C  0.09967319  0.31212822  0.15047264    -0.12500
C315        C  0.12458892  0.32596070  0.16855305     0.01200
C316        C  0.15204610  0.31309968  0.15897373    -0.11000
C317        C  0.15490067  0.28729786  0.13569121     0.03700
C318        C  0.13127192  0.27687533  0.11428142    -0.10400
H319        H  0.07767934  0.31874717  0.15966292     0.09300
H320        H  0.17187374  0.32236040  0.17162461     0.06800
H321        H  0.13366792  0.25727511  0.09606769     0.06600
C322        C  0.14786332  0.27225682  0.45552851     0.03700
C323        C  0.12000977  0.26353974  0.44177673    -0.12500
C324        C  0.09460021  0.27964399  0.45256954     0.01600
C325        C  0.09774015  0.30472223  0.47889488    -0.11000
C326        C  0.12575973  0.31332093  0.49449574     0.03700
C327        C  0.15000794  0.29633591  0.48223988    -0.10400
H328        H  0.11844475  0.24574991  0.42011955     0.09300
H329        H  0.07854543  0.31753178  0.48689110     0.06800
H330        H  0.17185558  0.30311987  0.49139126     0.06600
O331        O  0.30705858  0.20459809  0.17472023    -0.78000
C332        C  0.23357737  0.22661616  0.27400814     0.83100
O333        O  0.24493008  0.18500654  0.11429806    -0.79100
O334        O  0.19762651  0.27694094  0.17020142    -0.80600
O335        O  0.26891436  0.30894254  0.12908492    -0.80400
O336        O  0.32557440  0.24802325  0.15194851    -0.79000
Zn337      Zn  0.26708985  0.21331594  0.19757032     1.55700
O338        O  0.24918266  0.31009857  0.19367478    -0.80400
Cd339      Cd  0.28738563  0.26745466  0.13142049     1.59700
Cd340      Cd  0.23159430  0.23004834  0.11084593     1.59600
O341        O  0.29365826  0.26480929  0.06730003    -0.80400
O342        O  0.25519035  0.24406699  0.15859565    -1.90900
Cd343      Cd  0.23458666  0.26831178  0.19644651     1.59900
O344        O  0.24780912  0.25065062  0.05430119    -0.80300
O345        O  0.22320197  0.24818814  0.25235305    -0.79000
C346        C  0.25153470  0.17195563  0.14989250     0.83600
C347        C  0.32721027  0.21994042  0.15631621     0.83200
O348        O  0.25547058  0.21212591  0.26040366    -0.77900
C349        C  0.25156287  0.32046551  0.15562781     0.84000
O350        O  0.24210558  0.18192920  0.18378352    -0.78000
C351        C  0.27253279  0.26200416  0.04196543     0.84100
C352        C  0.18171951  0.26959517  0.14015274     0.84500
O353        O  0.18858495  0.24834171  0.11634488    -0.80500
O354        O  0.31722872  0.23808907  0.36955311    -0.78000
C355        C  0.27563496  0.27207747  0.49734199     0.83100
O356        O  0.24283221  0.18592861  0.44557538    -0.79100
O357        O  0.19621060  0.28101925  0.43449524    -0.80600
O358        O  0.24134879  0.30788073  0.31904443    -0.80400
O359        O  0.29036403  0.24396618  0.31037124    -0.79000
Zn360      Zn  0.28947928  0.24170894  0.41979833     1.55700
O361        O  0.23570969  0.32673868  0.38273389    -0.80400
Cd362      Cd  0.25278821  0.26519002  0.33767061     1.59700
Cd363      Cd  0.22348784  0.21821506  0.40512492     1.59600
O364        O  0.21286627  0.24639309  0.33242798    -0.80400
O365        O  0.25240655  0.25310534  0.39794910    -1.90900
Cd366      Cd  0.23855079  0.28864291  0.42203666     1.59900
O367        O  0.22505799  0.20124078  0.34284644    -0.80300
O368        O  0.25411125  0.28666111  0.48195685    -0.79000
C369        C  0.27023898  0.18168587  0.45377048     0.83600
C370        C  0.31404790  0.23562680  0.32935203     0.83200
O371        O  0.29683727  0.26288699  0.47420988    -0.77900
C372        C  0.23354360  0.32880983  0.34222707     0.84000
O373        O  0.28966512  0.20095208  0.44393558    -0.78000
C374        C  0.22160443  0.22313408  0.31727881     0.84100
C375        C  0.17625394  0.26147107  0.43746266     0.84500
O376        O  0.18127511  0.23487412  0.42707164    -0.80500
C377        C  0.16310566  0.36801085  0.57095559     0.87000
C378        C  0.15617709  0.33947803  0.54873205    -0.53200
C379        C  0.13200456  0.33981393  0.02229058     0.09900
C380        C  0.11539634  0.37018594  0.02280459     0.20900
C381        C  0.16416677  0.39157764  0.53446059    -0.53900
C382        C  0.13905626  0.39486191  0.01065003     0.10100
C383        C  0.13370129  0.37474190  0.59450085    -0.53500
C384        C  0.10832908  0.37505850  0.57048075     0.10600
H385        H  0.16963777  0.32018455  0.05373157     0.15100
H386        H  0.09554411  0.37087909  0.00247484     0.00900
H387        H  0.18275899  0.40650581  0.03082546     0.15400
H388        H  0.13330262  0.37813758  0.62783423     0.15200
C389        C  0.14945656  0.37884808  0.75621480     0.87000
C390        C  0.14656431  0.35133373  0.73028971    -0.53200
C391        C  0.12450793  0.35101228  0.70074727     0.09900
C392        C  0.10530876  0.38006051  0.70252287     0.20900
C393        C  0.15081957  0.40448359  0.72243247    -0.53900
C394        C  0.12751607  0.40686805  0.69552432     0.10100
C395        C  0.11871565  0.38168698  0.77757518    -0.53500
C396        C  0.09530532  0.38205356  0.74995293     0.10600
H397        H  0.16150914  0.33314312  0.73480774     0.15100
H398        H  0.08658547  0.38023916  0.68068525     0.00900
H399        H  0.16867978  0.42052119  0.72082566     0.15400
H400        H  0.11570722  0.38274329  0.81174680     0.15200
C401        C  0.40740646  0.11787727  0.00578847     0.87000
C402        C  0.40355811  0.14378317  0.53460909    -0.53200
C403        C  0.38002303  0.14302639  0.56271939     0.09900
C404        C  0.36093390  0.11416467  0.55750554     0.20900
C405        C  0.40727444  0.09076478  0.53718913    -0.53900
C406        C  0.38330656  0.08737995  0.56386226     0.10100
C407        C  0.37730625  0.11648255  0.98275878    -0.53500
C408        C  0.35255664  0.11502493  0.00901493     0.10600
H409        H  0.41869642  0.16218319  0.53178610     0.15100
H410        H  0.34136470  0.11272587  0.57890873     0.00900
H411        H  0.42506575  0.07502302  0.53835084     0.15400
H412        H  0.37570716  0.11831980  0.94836763     0.15200
C413        C  0.40456659  0.13030493  0.69466549     0.87000
C414        C  0.39910638  0.15905251  0.71740466    -0.53200
C415        C  0.37503049  0.15930988  0.74465142     0.09900
C416        C  0.35715535  0.12934931  0.74490129     0.20900
C417        C  0.40524670  0.10682217  0.73082131    -0.53900
C418        C  0.38060460  0.10446178  0.75631574     0.10100
C419        C  0.37476766  0.12385887  0.67246484    -0.53500
C420        C  0.34938411  0.12466107  0.69722713     0.10600
H421        H  0.41356961  0.17797288  0.71300605     0.15100
H422        H  0.33749912  0.12889559  0.76635236     0.00900
H423        H  0.42323046  0.09123765  0.73327243     0.15400
H424        H  0.37400593  0.11851069  0.63962915     0.15200
C425        C  0.03146433  0.34849373  0.61185708     0.03700
C426        C  0.02162738  0.37155407  0.63479484    -0.12500
C427        C  0.03784569  0.39745465  0.63422821     0.01200
C428        C  0.06547002  0.39989285  0.61139058    -0.11000
C429        C  0.07709054  0.37585009  0.58975806     0.03700
C430        C  0.05888645  0.35091119  0.58863285    -0.10400
H431        H  0.50099304  0.36948940  0.65261733     0.09300
H432        H  0.07769148  0.42027613  0.61011266     0.06800
H433        H  0.06723076  0.33251717  0.57149030     0.06600
C434        C  0.02020668  0.35582890  0.79475565     0.03700
C435        C  0.04796577  0.35623698  0.77368902    -0.12500
C436        C  0.06352984  0.38295486  0.76541358     0.01200
C437        C  0.05049971  0.40942406  0.77901310    -0.11000
C438        C  0.02241601  0.40898250  0.79990016     0.03700
C439        C  0.00746578  0.38222426  0.80612124    -0.10400
H440        H  0.05862000  0.33562999  0.76719771     0.09300
H441        H  0.06303619  0.42977335  0.77614029     0.06800
H442        H  0.48697933  0.38152389  0.82448291     0.06600
C443        C  0.40500999  0.20897704  0.62680120     0.03700
C444        C  0.40373531  0.18256582  0.60481989    -0.12500
C445        C  0.37737478  0.16812709  0.59459011     0.01200
C446        C  0.35129337  0.17961182  0.61334620    -0.11000
C447        C  0.35307597  0.20501151  0.63934030     0.03700
C448        C  0.37984458  0.21940238  0.64506914    -0.10400
H449        H  0.42425626  0.17344967  0.59433737     0.09300
H450        H  0.33004447  0.16989870  0.60670252     0.06800
H451        H  0.38089262  0.23942489  0.66250307     0.06600
C452        C  0.39372462  0.22714182  0.80893266     0.03700
C453        C  0.39570744  0.20056017  0.78772044    -0.12500
C454        C  0.37024096  0.18606189  0.77232001     0.01200
C455        C  0.34206821  0.19812980  0.78324200    -0.11000
C456        C  0.34041643  0.22492238  0.80576802     0.03700
C457        C  0.36644079  0.23958032  0.81558472    -0.10400
H458        H  0.41737647  0.19103934  0.78358813     0.09300
H459        H  0.32197453  0.18670001  0.77523677     0.06800
H460        H  0.36535900  0.25956706  0.83318993     0.06600
C461        C  0.22896915  0.39755130  0.63781392     0.03700
C462        C  0.20426598  0.39522014  0.61085841    -0.12500
C463        C  0.19198610  0.36812653  0.59965611     0.01200
C464        C  0.20886469  0.34299642  0.61321013    -0.11000
C465        C  0.23333849  0.34554738  0.64151555     0.03700
C466        C  0.24201165  0.37267864  0.65498014    -0.10400
H467        H  0.19569579  0.41476007  0.59601884     0.09300
H468        H  0.20322372  0.32148559  0.60280316     0.06800
H469        H  0.26136932  0.37459571  0.67475774     0.06600
C470        C  0.21962605  0.35534271  0.82233611     0.03700
C471        C  0.23122196  0.38296531  0.83044280    -0.12500
C472        C  0.21573880  0.40835856  0.81852747     0.01200
C473        C  0.18815494  0.40606265  0.79852471    -0.11000
C474        C  0.17675826  0.37891782  0.78621742     0.03700
C475        C  0.19273416  0.35329261  0.79963902    -0.10400
H476        H  0.25159594  0.38459921  0.84798974     0.09300
H477        H  0.17584458  0.42591094  0.79121662     0.06800
H478        H  0.18394489  0.33162945  0.79459604     0.06600
C479        C  0.35051786  0.02067434  0.63144719     0.03700
C480        C  0.37444157  0.01068464  0.65433493    -0.12500
C481        C  0.40221881  0.02081798  0.64290328     0.01200
C482        C  0.40559933  0.04508147  0.61278982    -0.11000
C483        C  0.38067151  0.05987716  0.59466490     0.03700
C484        C  0.35366362  0.04491424  0.60119858    -0.10400
H485        H  0.37200223  0.49189126  0.67642011     0.09300
H486        H  0.42761773  0.05188698  0.60323835     0.06800
H487        H  0.33620808  0.05109182  0.58004420     0.06600
C488        C  0.34523387  0.03541770  0.81269977     0.03700
C489        C  0.36991545  0.02083098  0.82904562    -0.12500
C490        C  0.39785701  0.03339931  0.82407343     0.01200
C491        C  0.40119315  0.06120665  0.80235152    -0.11000
C492        C  0.37656782  0.07662701  0.78476277     0.03700
C493        C  0.34870051  0.06315635  0.79036526    -0.10400
H494        H  0.36733532  0.50010399  0.84707279     0.09300
H495        H  0.42311984  0.07080336  0.79963134     0.06800
H496        H  0.32960783  0.07424856  0.77707754     0.06600
C497        C  0.46762135  0.09726831  0.62634149     0.03700
C498        C  0.48432179  0.12093241  0.61188973    -0.12500
C499        C  0.47893556  0.14792988  0.62831712     0.01200
C500        C  0.45424249  0.15199027  0.65650412    -0.11000
C501        C  0.43319676  0.12884944  0.66536690     0.03700
C502        C  0.44103291  0.10150139  0.64974745    -0.10400
H503        H  0.00423790  0.11763705  0.59313718     0.09300
H504        H  0.45139976  0.17323710  0.66978751     0.06800
H505        H  0.42812092  0.08265538  0.66071050     0.06600
C506        C  0.48040532  0.09848850  0.94355828     0.03700
C507        C  0.49211118  0.12644216  0.93166023    -0.12500
C508        C  0.47600276  0.15195126  0.94072820     0.01200
C509        C  0.44789496  0.14867691  0.96203867    -0.11000
C510        C  0.43626278  0.12111550  0.97694177     0.03700
C511        C  0.45299686  0.09651524  0.96653365    -0.10400
H512        H  0.01262957  0.12825002  0.91363986     0.09300
H513        H  0.43464250  0.16796356  0.96654454     0.06800
H514        H  0.44388283  0.07508251  0.97504901     0.06600
O515        O  0.43870775  0.00643754  0.69324705    -0.78000
C516        C  0.52326808  0.51557317  0.76439947     0.83100
O517        O  0.00160444  0.06045671  0.60261221    -0.79100
O518        O  0.06669614  0.50811214  0.66537423    -0.80600
O519        O  0.49618850  0.42502611  0.65652719    -0.80400
O520        O  0.43682380  0.48312116  0.63285792    -0.79000
Zn521      Zn  0.48054012  0.01736138  0.68994525     1.55700
O522        O  0.04155890  0.44175709  0.66843932    -0.80400
Cd523      Cd  0.47778319  0.46318020  0.63181249     1.59700
Cd524      Cd  0.01671059  0.01700553  0.60013141     1.59600
O525        O  0.48017488  0.45574872  0.56784183    -0.80400
O526        O  0.50208317  0.99535537  0.65257201    -1.90900
Cd527      Cd  0.03481115  0.48269635  0.68885214     1.59900
O528        O  0.99530652  0.00071589  0.54806164    -0.80300
O529        O  0.03829921  0.49431164  0.75111215    -0.79000
C530        C  0.48205805  0.06877937  0.62929829     0.83600
C531        C  0.42711092  0.00250796  0.65732038     0.83200
O532        O  0.50134612  0.02561993  0.74356599    -0.77900
C533        C  0.02440353  0.42235061  0.65505224     0.84000
O534        O  0.47485050  0.05341522  0.66179323    -0.78000
C535        C  0.98390607  0.97597915  0.53958584     0.84100
C536        C  0.07573821  0.49816058  0.63117188     0.84500
O537        O  0.06147913  0.00368728  0.59698652    -0.80500
O538        O  0.42672963  0.01725582  0.88339719    -0.78000
C539        C  0.47584298  0.47197897  0.99541178     0.83100
O540        O  0.01953022  0.06578336  0.91602702    -0.79100
O541        O  0.05149091  0.45438686  0.93566463    -0.80600
O542        O  0.50531112  0.45869314  0.80757887    -0.80400
O543        O  0.44294637  0.50750120  0.81859446    -0.79000
Zn544      Zn  0.46379484  0.01010609  0.91896760     1.55700
O545        O  0.00812069  0.42836292  0.86563081    -0.80400
Cd546      Cd  0.48532126  0.49595748  0.83466069     1.59700
Cd547      Cd  0.03447702  0.02304671  0.89483707     1.59600
O548        O  0.50411717  0.53564873  0.82376084    -0.80400
O549        O  0.49793316  0.99579675  0.89357932    -1.90900
Cd550      Cd  0.00832942  0.45659542  0.91616349     1.59900
O551        O  0.04935657  0.02250135  0.83025926    -0.80300
O552        O  0.98693940  0.45085047  0.97503543    -0.79000
C553        C  0.49275284  0.07020537  0.92851989     0.83600
C554        C  0.42354753  0.01811158  0.84310053     0.83200
O555        O  0.46255176  0.99343484  0.97725757    -0.77900
C556        C  0.01150556  0.43362894  0.82540823     0.84000
O557        O  0.47403786  0.04963266  0.92868806    -0.78000
C558        C  0.02720369  0.02703462  0.80664885     0.84100
C559        C  0.07143019  0.47350481  0.94142473     0.84500
O560        O  0.06746997  0.00091661  0.93131711    -0.80500
C561        C  0.10043305  0.47739952  0.63290444     0.03700
C562        C  0.10227261  0.45384690  0.66448697    -0.12500
C563        C  0.12564684  0.43354173  0.66412812     0.01200
C564        C  0.15056654  0.44285668  0.63983724    -0.11000
C565        C  0.15003294  0.46812756  0.61177630     0.03700
C566        C  0.12406874  0.48337104  0.60566532    -0.10400
H567        H  0.08696715  0.45214941  0.69088552     0.09300
H568        H  0.17125410  0.43258133  0.64711983     0.06800
H569        H  0.12366666  0.00243495  0.58381725     0.06600
C570        C  0.10077702  0.46309451  0.95695495     0.03700
C571        C  0.10511968  0.43463063  0.97650796    -0.12500
C572        C  0.13396294  0.42387400  0.98512107     0.01200
C573        C  0.15829651  0.44236217  0.97170666    -0.11000
C574        C  0.15402629  0.47074828  0.95292290     0.03700
C575        C  0.12534591  0.48087483  0.94690742    -0.10400
H576        H  0.08605030  0.42112067  0.98517661     0.09300
H577        H  0.18072793  0.43451195  0.97401889     0.06800
H578        H  0.12226902  0.00226597  0.93107056     0.06600
O579        O  0.19798368  0.46527449  0.58562789    -0.78000
C580        C  0.27174746  0.98674818  0.49782491     0.83100
O581        O  0.24903260  0.43961627  0.67125253    -0.79100
O582        O  0.31594445  0.99090325  0.59971101    -0.80600
O583        O  0.24261741  0.06949988  0.60834844    -0.80400
O584        O  0.18194006  0.00971350  0.60366166    -0.79000
Zn585      Zn  0.24016318  0.46849458  0.57751203     1.55700
O586        O  0.28863688  0.05386818  0.59941738    -0.80400
Cd587      Cd  0.22089075  0.02943475  0.62470409     1.59700
Cd588      Cd  0.26482805  0.48332884  0.66926248     1.59600
O589        O  0.21229509  0.03587376  0.68932539    -0.80400
O590        O  0.25004181  0.49895839  0.61359751    -1.90900
Cd591      Cd  0.28226965  0.01384217  0.57953546     1.59900
O592        O  0.24458973  0.50479596  0.71888902    -0.80300
O593        O  0.28200741  0.00861125  0.51664032    -0.79000
C594        C  0.24597900  0.42486609  0.63792880     0.83600
C595        C  0.17778157  0.48219604  0.59776744     0.83200
O596        O  0.25444922  0.46834269  0.51669204    -0.77900
C597        C  0.27082438  0.07331895  0.60986479     0.84000
O598        O  0.25717039  0.43376124  0.60285136    -0.78000
C599        C  0.22482928  0.52449866  0.72199934     0.84100
C600        C  0.32433857  0.00172988  0.63359907     0.84500
O601        O  0.30926594  0.49764244  0.66800764    -0.80500
O602        O  0.17407526  0.49848510  0.89393959    -0.78000
C603        C  0.21727784  0.03342419  0.76525493     0.83100
O604        O  0.25407232  0.44234059  0.83606253    -0.79100
O605        O  0.29514387  0.04318187  0.82102254    -0.80600
O606        O  0.24347547  0.06103312  0.94774556    -0.80400
O607        O  0.20324013  0.99203765  0.95042157    -0.79000
Zn608      Zn  0.20482603  0.49893317  0.84691541     1.55700
O609        O  0.26526094  0.07881327  0.88816187    -0.80400
Cd610      Cd  0.23742464  0.02016554  0.92563599     1.59700
Cd611      Cd  0.27145231  0.47838010  0.86636315     1.59600
O612        O  0.27995723  0.01002073  0.93349002    -0.80400
O613        O  0.24107476  0.51131098  0.86661619    -1.90900
Cd614      Cd  0.25393013  0.04864027  0.84099896     1.59900
O615        O  0.27501853  0.46338296  0.93069006    -0.80300
O616        O  0.23362023  0.05282050  0.78198174    -0.79000
C617        C  0.22656922  0.43739662  0.83045135     0.83600
C618        C  0.17849049  0.48810516  0.93185762     0.83200
O619        O  0.19995873  0.51633058  0.78742188    -0.77900
C620        C  0.26127981  0.07898471  0.92861606     0.84000
O621        O  0.20730147  0.45702188  0.83563796    -0.78000
C622        C  0.27778514  0.48577150  0.95272453     0.84100
C623        C  0.31543858  0.02439108  0.82467058     0.84500
O624        O  0.31090174  0.49835753  0.84120000    -0.80500
C625        C  0.27220377  0.14696228  0.65257910     0.03700
C626        C  0.29645848  0.14442814  0.68173186    -0.12500
C627        C  0.31821450  0.12234169  0.67767368     0.01200
C628        C  0.31047983  0.09915899  0.65123650    -0.11000
C629        C  0.28359732  0.09971585  0.62769388     0.03700
C630        C  0.26666422  0.12469843  0.62564195    -0.10400
H631        H  0.29907588  0.15971769  0.70662110     0.09300
H632        H  0.32459121  0.08018020  0.65088066     0.06800
H633        H  0.24733538  0.12573500  0.60552696     0.06600
C634        C  0.27717066  0.10096751  0.95351372     0.03700
C635        C  0.26475962  0.12857305  0.95414023    -0.12500
C636        C  0.28049918  0.15229220  0.96900318     0.01200
C637        C  0.30852496  0.14751055  0.98828435    -0.11000
C638        C  0.32123290  0.11905615  0.99146198     0.03700
C639        C  0.30536255  0.09587900  0.97250821    -0.10400
H640        H  0.24382484  0.13214103  0.93831834     0.09300
H641        H  0.32108953  0.16612093  0.99883124     0.06800
H642        H  0.31517186  0.07428663  0.97151351     0.06600
O643        O  0.06983587  0.26926508  0.57301732    -0.78000
C644        C  0.98218974  0.26526536  0.49860510     0.83100
O645        O  0.49499304  0.31270727  0.64115695    -0.79100
O646        O  0.45101264  0.21629479  0.59913439    -0.80600
O647        O  0.01584934  0.18205881  0.64563281    -0.80400
O648        O  0.07157999  0.24930771  0.63906750    -0.79000
Zn649      Zn  0.02685837  0.26746075  0.56672592     1.55700
O650        O  0.50229070  0.18073000  0.57810133    -0.80400
Cd651      Cd  0.03537336  0.22300343  0.64725333     1.59700
Cd652      Cd  0.48200039  0.26744490  0.65218250     1.59600
O653        O  0.03373090  0.22562555  0.71231227    -0.80400
O654        O  0.00763174  0.24626165  0.61198014    -1.90900
Cd655      Cd  0.48820281  0.22218593  0.57168419     1.59900
O656        O  0.49456342  0.25461416  0.71445779    -0.80300
O657        O  0.47325998  0.24092888  0.51523598    -0.79000
C658        C  0.01507592  0.32055793  0.61354214     0.83600
C659        C  0.07988884  0.26848067  0.61077703     0.83200
O660        O  0.00532447  0.27747982  0.51217630    -0.77900
C661        C  0.50044224  0.17110584  0.61663935     0.84000
O662        O  0.02463395  0.30326058  0.58737904    -0.78000
C663        C  0.51436005  0.23891900  0.73316405     0.84100
C664        C  0.43278966  0.22605845  0.62503927     0.84500
O665        O  0.43833386  0.24908233  0.64605152    -0.80500
O666        O  0.44273556  0.26748303  0.94918378    -0.78000
C667        C  0.41920550  0.24007409  0.83037808     0.83100
O668        O  0.00810343  0.18778433  0.90017236    -0.79100
O669        O  0.48604302  0.23555696  0.79387155    -0.80600
O670        O  0.01208012  0.32774242  0.85778990    -0.80400
O671        O  0.97334061  0.30480333  0.94880423    -0.79000
Zn672      Zn  0.45841893  0.23954088  0.90754237     1.55700
O673        O  0.49545100  0.30881867  0.79815650    -0.80400
Cd674      Cd  0.00549722  0.29596499  0.90547897     1.59700
Cd675      Cd  0.02567327  0.23031441  0.87460271     1.59600
O676        O  0.04511474  0.29126527  0.93527131    -0.80400
O677        O  0.49222114  0.25867406  0.88097407    -1.90900
Cd678      Cd  0.47515584  0.27052598  0.82533410     1.59900
O679        O  0.06207329  0.24910232  0.91047900    -0.80300
O680        O  0.43028364  0.26466741  0.81714887    -0.79000
C681        C  0.48582472  0.18240363  0.92561975     0.83600
C682        C  0.46424635  0.28062051  0.96588853     0.83200
O683        O  0.42899074  0.22679583  0.86360247    -0.77900
C684        C  0.00879176  0.32905370  0.81757341     0.84000
O685        O  0.46942059  0.20305591  0.93750726    -0.78000
C686        C  0.06560452  0.27249592  0.93211979     0.84100
C687        C  0.01194663  0.23473371  0.77974514     0.84500
O688        O  0.03357576  0.23208043  0.80578522    -0.80500
C689        C  0.10364228  0.28816094  0.62225833     0.03700
C690        C  0.09967316  0.31212826  0.65047271    -0.12500
C691        C  0.12458887  0.32596075  0.66855315     0.01200
C692        C  0.15204607  0.31309977  0.65897385    -0.11000
C693        C  0.15490065  0.28729792  0.63569137     0.03700
C694        C  0.13127191  0.27687537  0.61428157    -0.10400
H695        H  0.07767930  0.31874720  0.65966298     0.09300
H696        H  0.17187370  0.32236051  0.67162469     0.06800
H697        H  0.13366792  0.25727514  0.59606785     0.06600
C698        C  0.14786332  0.27225679  0.95552855     0.03700
C699        C  0.12000977  0.26353970  0.94177676    -0.12500
C700        C  0.09460023  0.27964397  0.95256959     0.01600
C701        C  0.09774016  0.30472222  0.97889495    -0.11000
C702        C  0.12575975  0.31332092  0.99449579     0.03700
C703        C  0.15000793  0.29633588  0.98223992    -0.10400
H704        H  0.11844476  0.24574989  0.92011957     0.09300
H705        H  0.07854542  0.31753177  0.98689122     0.06800
H706        H  0.17185560  0.30311984  0.99139133     0.06600
O707        O  0.30705866  0.20459809  0.67472026    -0.78000
C708        C  0.23357744  0.22661620  0.77400817     0.83100
O709        O  0.24493011  0.18500657  0.61429815    -0.79100
O710        O  0.19762654  0.27694108  0.67020154    -0.80600
O711        O  0.26891434  0.30894248  0.62908476    -0.80400
O712        O  0.32557445  0.24802324  0.65194847    -0.79000
Zn713      Zn  0.26708993  0.21331596  0.69757037     1.55700
O714        O  0.24918280  0.31009861  0.69367470    -0.80400
Cd715      Cd  0.28738567  0.26745462  0.63142044     1.59700
Cd716      Cd  0.23159429  0.23004839  0.61084602     1.59600
O717        O  0.29365827  0.26480917  0.56729997    -0.80400
O718        O  0.25519039  0.24406700  0.65859570    -1.90900
Cd719      Cd  0.23458672  0.26831184  0.69644653     1.59900
O720        O  0.24780903  0.25065074  0.55430125    -0.80300
O721        O  0.22320206  0.24818818  0.75235307    -0.79000
C722        C  0.25153475  0.17195564  0.64989256     0.83600
C723        C  0.32721033  0.21994042  0.65631619     0.83200
O724        O  0.25547067  0.21212595  0.76040371    -0.77900
C725        C  0.25156290  0.32046549  0.65562768     0.84000
O726        O  0.24210567  0.18192920  0.68378362    -0.78000
C727        C  0.27253274  0.26200419  0.54196543     0.84100
C728        C  0.18171951  0.26959525  0.64015292     0.84500
O729        O  0.18858493  0.24834176  0.61634512    -0.80500
O730        O  0.31722873  0.23808906  0.86955319    -0.78000
C731        C  0.27563501  0.27207743  0.99734200     0.83100
O732        O  0.24283217  0.18592860  0.94557544    -0.79100
O733        O  0.19621064  0.28101916  0.93449539    -0.80600
O734        O  0.24134879  0.30788070  0.81904455    -0.80400
O735        O  0.29036405  0.24396623  0.81037132    -0.79000
Zn736      Zn  0.28947928  0.24170889  0.91979839     1.55700
O737        O  0.23570958  0.32673861  0.88273404    -0.80400
Cd738      Cd  0.25278823  0.26519001  0.83767071     1.59700
Cd739      Cd  0.22348780  0.21821502  0.90512495     1.59600
O740        O  0.21286630  0.24639310  0.83242799    -0.80400
O741        O  0.25240652  0.25310529  0.89794919    -1.90900
Cd742      Cd  0.23855078  0.28864285  0.92203676     1.59900
O743        O  0.22505801  0.20124078  0.84284643    -0.80300
O744        O  0.25411130  0.28666106  0.98195689    -0.79000
C745        C  0.27023894  0.18168586  0.95377054     0.83600
C746        C  0.31404793  0.23562683  0.82935209     0.83200
O747        O  0.29683730  0.26288692  0.97420989    -0.77900
C748        C  0.23354353  0.32880977  0.84222721     0.84000
O749        O  0.28966510  0.20095205  0.94393561    -0.78000
C750        C  0.22160448  0.22313409  0.81727881     0.84100
C751        C  0.17625394  0.26147101  0.93746272     0.84500
O752        O  0.18127507  0.23487408  0.92707161    -0.80500
C753        C  0.16313070  0.86804828  0.07099009     0.87000
C754        C  0.15622189  0.83952619  0.04873517    -0.53200
C755        C  0.13205162  0.83986453  0.52229332     0.09900
C756        C  0.11542721  0.87022657  0.52282885     0.20900
C757        C  0.16418422  0.89163548  0.03451546    -0.53900
C758        C  0.13907470  0.89491667  0.51070111     0.10100
C759        C  0.13372150  0.87475392  0.09453461    -0.53500
C760        C  0.10835421  0.87507759  0.07050651     0.10600
H761        H  0.16969607  0.82023806  0.55370545     0.15100
H762        H  0.09557662  0.87091894  0.50249563     0.00900
H763        H  0.18277003  0.90657172  0.53088325     0.15400
H764        H  0.13331691  0.87812984  0.12787443     0.15200
C765        C  0.14943341  0.87882628  0.25623144     0.87000
C766        C  0.14653309  0.85130998  0.23031414    -0.53200
C767        C  0.12448173  0.85099325  0.20076547     0.09900
C768        C  0.10528365  0.88004566  0.20254561     0.20900
C769        C  0.15079943  0.90446025  0.22244621    -0.53900
C770        C  0.12749605  0.90685253  0.19554220     0.10100
C771        C  0.11869417  0.88167159  0.27759770    -0.53500
C772        C  0.09527949  0.88203956  0.24998171     0.10600
H773        H  0.16147001  0.83311421  0.23483868     0.15100
H774        H  0.08655953  0.88022348  0.18071222     0.00900
H775        H  0.16866465  0.92049256  0.22083513     0.15400
H776        H  0.11569006  0.88273057  0.31176968     0.15200
C777        C  0.40742756  0.61793165  0.50572376     0.87000
C778        C  0.40356629  0.64384141  0.03453664    -0.53200
C779        C  0.38003363  0.64307430  0.06265174     0.09900
C780        C  0.36095420  0.61420767  0.05744566     0.20900
C781        C  0.40730432  0.59082163  0.03713760    -0.53900
C782        C  0.38333230  0.58743156  0.06381188     0.10100
C783        C  0.37732816  0.61651886  0.48269769    -0.53500
C784        C  0.35257945  0.61505682  0.50895514     0.10600
H785        H  0.41869673  0.66224744  0.03172463     0.15100
H786        H  0.34138529  0.61276611  0.07885188     0.00900
H787        H  0.42510234  0.57508502  0.03828945     0.15400
H788        H  0.37572773  0.61835418  0.44830645     0.15200
C789        C  0.40458291  0.63032307  0.19468495     0.87000
C790        C  0.39913656  0.65904260  0.21750365    -0.53200
C791        C  0.37506091  0.65926996  0.24475225     0.09900
C792        C  0.35717101  0.62932319  0.24492087     0.20900
C793        C  0.40525173  0.60679744  0.23078817    -0.53900
C794        C  0.38061037  0.60441993  0.25628205     0.10100
C795        C  0.37478339  0.62391512  0.17246364    -0.53500
C796        C  0.34940017  0.62469219  0.19722958     0.10600
H797        H  0.41361859  0.67795671  0.21318637     0.15100
H798        H  0.33751424  0.62885393  0.26637125     0.00900
H799        H  0.42323503  0.59121198  0.23321583     0.15400
H800        H  0.37402093  0.61859947  0.13961363     0.15200
C801        C  0.03147576  0.84852668  0.11182034     0.03700
C802        C  0.02164933  0.87157530  0.13479029    -0.12500
C803        C  0.03787791  0.89746776  0.13425758     0.01200
C804        C  0.06550038  0.89990851  0.11141832    -0.11000
C805        C  0.07711484  0.87587136  0.08976976     0.03700
C806        C  0.05890240  0.85094190  0.08861034    -0.10400
H807        H  0.50101490  0.86950849  0.15261211     0.09300
H808        H  0.07772634  0.92028799  0.11015333     0.06800
H809        H  0.06724256  0.83255316  0.07145196     0.06600
C810        C  0.02018451  0.85583850  0.29488240     0.03700
C811        C  0.04794949  0.85623054  0.27382492    -0.12500
C812        C  0.06350217  0.88294637  0.26545912     0.01200
C813        C  0.05046359  0.90942789  0.27900129    -0.11000
C814        C  0.02238277  0.90899899  0.29990143     0.03700
C815        C  0.00743448  0.88224310  0.30617512    -0.10400
H816        H  0.05861105  0.83561728  0.26739237     0.09300
H817        H  0.06299452  0.92977894  0.27608345     0.06800
H818        H  0.48694989  0.88155623  0.32454128     0.06600
C819        C  0.40501879  0.70900885  0.12674966     0.03700
C820        C  0.40374631  0.68259355  0.10477978    -0.12500
C821        C  0.37738403  0.66816622  0.09453250     0.01200
C822        C  0.35130151  0.67965287  0.11328312    -0.11000
C823        C  0.35308551  0.70504976  0.13928203     0.03700
C824        C  0.37985421  0.71943761  0.14501282    -0.10400
H825        H  0.42426800  0.67346840  0.09431058     0.09300
H826        H  0.33005201  0.66994277  0.10663406     0.06800
H827        H  0.38090364  0.73946065  0.16244547     0.06600
C828        C  0.39384111  0.72690373  0.30937479     0.03700
C829        C  0.39578376  0.70033237  0.28812743    -0.12500
C830        C  0.37030315  0.68596140  0.27253708     0.01200
C831        C  0.34214739  0.69811920  0.28333282    -0.11000
C832        C  0.34053541  0.72489351  0.30590262     0.03700
C833        C  0.36658821  0.73944788  0.31586669    -0.10400
H834        H  0.41742810  0.69074601  0.28404550     0.09300
H835        H  0.32203507  0.68677572  0.27518463     0.06800
H836        H  0.36553573  0.75944086  0.33346131     0.06600
C837        C  0.22898006  0.89757271  0.13786569     0.03700
C838        C  0.20428988  0.89524198  0.11089474    -0.12500
C839        C  0.19200008  0.86815379  0.09970792     0.01200
C840        C  0.20885864  0.84301999  0.11329867    -0.11000
C841        C  0.23332070  0.84557068  0.14162563     0.03700
C842        C  0.24200247  0.87270321  0.15507292    -0.10400
H843        H  0.19573662  0.91477830  0.09603666     0.09300
H844        H  0.20321519  0.82150944  0.10289421     0.06800
H845        H  0.26135482  0.87462077  0.17486112     0.06600
C846        C  0.21967080  0.85535769  0.32223024     0.03700
C847        C  0.23124956  0.88298818  0.33032284    -0.12500
C848        C  0.21572903  0.90836889  0.31846304     0.01200
C849        C  0.18812314  0.90605200  0.29852931    -0.11000
C850        C  0.17674417  0.87890147  0.28621651     0.03700
C851        C  0.19275859  0.85328718  0.29958592    -0.10400
H852        H  0.25164059  0.88463607  0.34782635     0.09300
H853        H  0.17578567  0.92588933  0.29125903     0.06800
H854        H  0.18398547  0.83161699  0.29454951     0.06600
C855        C  0.35050775  0.52077885  0.13149784     0.03700
C856        C  0.37442974  0.51080113  0.15439835    -0.12500
C857        C  0.40221283  0.52089088  0.14291100     0.01200
C858        C  0.40560736  0.54512987  0.11275650    -0.11000
C859        C  0.38068654  0.55993620  0.09463240     0.03700
C860        C  0.35366652  0.54499584  0.10120552    -0.10400
H861        H  0.37202107  0.99175523  0.17632200     0.09300
H862        H  0.42762919  0.55191331  0.10318325     0.06800
H863        H  0.33621087  0.55117296  0.08005014     0.06600
C864        C  0.34522336  0.53543263  0.31279708     0.03700
C865        C  0.36990567  0.52082745  0.32910707    -0.12500
C866        C  0.39785984  0.53335239  0.32403285     0.01200
C867        C  0.40120622  0.56114113  0.30226416    -0.11000
C868        C  0.37657757  0.57658875  0.28473670     0.03700
C869        C  0.34869787  0.56315912  0.29043381    -0.10400
H870        H  0.36735052  0.00009372  0.34697795     0.09300
H871        H  0.42314296  0.57070839  0.29948352     0.06800
H872        H  0.32960293  0.57426910  0.27718534     0.06600
C873        C  0.46766019  0.59730556  0.12640089     0.03700
C874        C  0.48438121  0.62096663  0.11199321    -0.12500
C875        C  0.47896812  0.64797063  0.12838350     0.01200
C876        C  0.45425411  0.65203249  0.15653443    -0.11000
C877        C  0.43321375  0.62888504  0.16538653     0.03700
C878        C  0.44105377  0.60154133  0.14975656    -0.10400
H879        H  0.00431454  0.61766856  0.09327987     0.09300
H880        H  0.45138992  0.67328330  0.16979829     0.06800
H881        H  0.42812742  0.58269524  0.16067710     0.06600
C882        C  0.48037952  0.59849635  0.44341445     0.03700
C883        C  0.49214262  0.62643965  0.43159451    -0.12500
C884        C  0.47609401  0.65196823  0.44074612     0.01200
C885        C  0.44798135  0.64872657  0.46205082    -0.11000
C886        C  0.43628251  0.62116664  0.47686313     0.03700
C887        C  0.45295565  0.59654702  0.46635988    -0.10400
H888        H  0.01267682  0.62823060  0.41360970     0.09300
H889        H  0.43477982  0.66804113  0.46660062     0.06800
H890        H  0.44379366  0.57512475  0.47482621     0.06600
O891        O  0.43867541  0.50644565  0.19325928    -0.78000
C892        C  0.52327938  0.01559204  0.26440832     0.83100
O893        O  0.00162617  0.56048070  0.10267711    -0.79100
O894        O  0.06672822  0.00812938  0.16537055    -0.80600
O895        O  0.49623118  0.92502829  0.15661358    -0.80400
O896        O  0.43685971  0.98307208  0.13288005    -0.79000
Zn897      Zn  0.48050768  0.51736568  0.18996034     1.55700
O898        O  0.04160408  0.94176308  0.16848378    -0.80400
Cd899      Cd  0.47783084  0.96315980  0.13183091     1.59700
Cd900      Cd  0.01668379  0.51701764  0.10015307     1.59600
O901        O  0.48020995  0.95570154  0.06786376    -0.80400
O902        O  0.50204203  0.49536072  0.15257673    -1.90900
Cd903      Cd  0.03485239  0.98270890  0.18886902     1.59900
O904        O  0.99527059  0.50076753  0.04806393    -0.80300
O905        O  0.03831947  0.99433248  0.25113223    -0.79000
C906        C  0.48207354  0.56880575  0.12935144     0.83600
C907        C  0.42708650  0.50255178  0.15731698     0.83200
O908        O  0.50132784  0.52560440  0.24357558    -0.77900
C909        C  0.02444497  0.92235512  0.15511133     0.84000
O910        O  0.47483743  0.55343266  0.16182622    -0.78000
C911        C  0.98387895  0.47602986  0.03957253     0.84100
C912        C  0.07576972  0.99817433  0.13116939     0.84500
O913        O  0.06144180  0.50366806  0.09699343    -0.80500
O914        O  0.42671760  0.51717166  0.38334648    -0.78000
C915        C  0.47583987  0.97193272  0.49543464     0.83100
O916        O  0.01951133  0.56576697  0.41596134    -0.79100
O917        O  0.05149403  0.95440947  0.43569037    -0.80600
O918        O  0.50527842  0.95871267  0.30758151    -0.80400
O919        O  0.44291899  0.00750722  0.31865432    -0.79000
Zn920      Zn  0.46379717  0.51009461  0.41889738     1.55700
O921        O  0.00812890  0.92839015  0.36563532    -0.80400
Cd922      Cd  0.48530034  0.99597130  0.33469573     1.59700
Cd923      Cd  0.03448533  0.52302742  0.39480453     1.59600
O924        O  0.50409777  0.03565716  0.32376096    -0.80400
O925        O  0.49794304  0.49577944  0.39354181    -1.90900
Cd926      Cd  0.00833365  0.95660902  0.41617783     1.59900
O927        O  0.04937159  0.52247767  0.33023005    -0.80300
O928        O  0.98693706  0.95081794  0.47503207    -0.79000
C929        C  0.49272269  0.57020516  0.42839698     0.83600
C930        C  0.42355227  0.51806112  0.34304691     0.83200
O931        O  0.46257284  0.49348007  0.47720714    -0.77900
C932        C  0.01148754  0.93365171  0.32540859     0.84000
O933        O  0.47400110  0.54963882  0.42855962    -0.78000
C934        C  0.02721331  0.52701762  0.30663391     0.84100
C935        C  0.07142935  0.97353165  0.44145015     0.84500
O936        O  0.06747567  0.50089156  0.43129264    -0.80500
C937        C  0.10045106  0.97739648  0.13290559     0.03700
C938        C  0.10229068  0.95385895  0.16451250    -0.12500
C939        C  0.12564174  0.93352725  0.16413729     0.01200
C940        C  0.15056219  0.94282327  0.13982774    -0.11000
C941        C  0.15003360  0.96808368  0.11174138     0.03700
C942        C  0.12407235  0.98333057  0.10562621    -0.10400
H943        H  0.08700220  0.95219115  0.19093429     0.09300
H944        H  0.17124593  0.93254779  0.14712338     0.06800
H945        H  0.12366277  0.50248807  0.08388013     0.06600
C946        C  0.10077988  0.96312921  0.45697315     0.03700
C947        C  0.10512717  0.93467673  0.47656043    -0.12500
C948        C  0.13397323  0.92392346  0.48516477     0.01200
C949        C  0.15830295  0.94240509  0.47172099    -0.11000
C950        C  0.15402837  0.97077603  0.45288932     0.03700
C951        C  0.12534721  0.98090017  0.44687460    -0.10400
H952        H  0.08605972  0.92117213  0.48525911     0.09300
H953        H  0.18073487  0.93455712  0.47404163     0.06800
H954        H  0.12227081  0.50225219  0.43113665     0.06600
O955        O  0.19798710  0.96524990  0.08557067    -0.78000
C956        C  0.27173288  0.48675578  0.99787691     0.83100
O957        O  0.24903007  0.93964597  0.17127026    -0.79100
O958        O  0.31596911  0.49096055  0.09976564    -0.80600
O959        O  0.24262177  0.56951719  0.10842810    -0.80400
O960        O  0.18194666  0.50975055  0.10367972    -0.79000
Zn961      Zn  0.24017498  0.96847638  0.07747240     1.55700
O962        O  0.28863548  0.55388984  0.09943279    -0.80400
Cd963      Cd  0.22090004  0.52944528  0.12475635     1.59700
Cd964      Cd  0.26482428  0.98334448  0.16922461     1.59600
O965        O  0.21229715  0.53586363  0.18937733    -0.80400
O966        O  0.25003589  0.99895396  0.11354614    -1.90900
Cd967      Cd  0.28227214  0.51385611  0.07958205     1.59900
O968        O  0.24462367  0.00484866  0.21884326    -0.80300
O969        O  0.28201718  0.50860636  0.01669409    -0.79000
C970        C  0.24599368  0.92488076  0.13796064     0.83600
C971        C  0.17778161  0.98215994  0.09773262     0.83200
O972        O  0.25448578  0.96831612  0.01664748    -0.77900
C973        C  0.27082932  0.57333946  0.10990177     0.84000
O974        O  0.25719167  0.93376219  0.10287878    -0.78000
C975        C  0.22485133  0.02453948  0.22194884     0.84100
C976        C  0.32433717  0.50181248  0.13364894     0.84500
O977        O  0.30927166  0.99758017  0.16796209    -0.80500
O978        O  0.17407668  0.99849354  0.39387937    -0.78000
C979        C  0.21725573  0.53337702  0.26530688     0.83100
O980        O  0.25405983  0.94234473  0.33600597    -0.79100
O981        O  0.29512603  0.54319849  0.32109034    -0.80600
O982        O  0.24352103  0.56104669  0.44780323    -0.80400
O983        O  0.20323269  0.49203838  0.45049017    -0.79000
Zn984      Zn  0.20482675  0.99895486  0.34683677     1.55700
O985        O  0.26520000  0.57885868  0.38815360    -0.80400
Cd986      Cd  0.23742336  0.52017581  0.42570751     1.59700
Cd987      Cd  0.27146362  0.97837512  0.36628973     1.59600
O988        O  0.27995492  0.51001677  0.43354082    -0.80400
O989        O  0.24108575  0.01130600  0.36654405    -1.90900
Cd990      Cd  0.25389814  0.54864411  0.34103695     1.59900
O991        O  0.27504556  0.96338478  0.43062432    -0.80300
O992        O  0.23358074  0.55279263  0.28202168    -0.79000
C993        C  0.22655781  0.93741130  0.33036875     0.83600
C994        C  0.17849285  0.98811764  0.43180055     0.83200
O995        O  0.19995867  0.01639370  0.28736007    -0.77900
C996        C  0.26127273  0.57902505  0.42861876     0.84000
O997        O  0.20729398  0.95704536  0.33552663    -0.78000
C998        C  0.27779917  0.98577172  0.45266730     0.84100
C999        C  0.31542598  0.52441451  0.32477592     0.84500
O1000       O  0.31091351  0.99833045  0.34108098    -0.80500
C1001       C  0.27222806  0.64699928  0.15254986     0.03700
C1002       C  0.29647951  0.64446807  0.18170996    -0.12500
C1003       C  0.31823186  0.62237618  0.17766960     0.01200
C1004       C  0.31049385  0.59918651  0.15124731    -0.11000
C1005       C  0.28361290  0.59974156  0.12770109     0.03700
C1006       C  0.26668838  0.62472921  0.12562319    -0.10400
H1007       H  0.29909593  0.65976134  0.20659483     0.09300
H1008       H  0.32459664  0.58020164  0.15091748     0.06800
H1009       H  0.24736157  0.62576274  0.10550388     0.06600
C1010       C  0.27718346  0.60102197  0.45347019     0.03700
C1011       C  0.26481128  0.62864811  0.45402314    -0.12500
C1012       C  0.28056349  0.65235784  0.46889431     0.01200
C1013       C  0.30858045  0.64756183  0.48818633    -0.11000
C1014       C  0.32125969  0.61909789  0.49140127     0.03700
C1015       C  0.30536435  0.59591859  0.47249192    -0.10400
H1016       H  0.24388833  0.63223062  0.43817529     0.09300
H1017       H  0.32115789  0.66616660  0.49872428     0.06800
H1018       H  0.31514907  0.57431290  0.47154505     0.06600
O1019       O  0.06984350  0.76926984  0.07297361    -0.78000
C1020       C  0.98219951  0.76528148  0.99857647     0.83100
O1021       O  0.49496439  0.81276530  0.14105501    -0.79100
O1022       O  0.45102832  0.71631480  0.09910548    -0.80600
O1023       O  0.01586608  0.68211880  0.14568341    -0.80400
O1024       O  0.07159548  0.74931978  0.13903030    -0.79000
Zn1025     Zn  0.02686546  0.76749089  0.06669275     1.55700
O1026       O  0.50231822  0.68076192  0.07814958    -0.80400
Cd1027     Cd  0.03535648  0.72307550  0.14726927     1.59700
Cd1028     Cd  0.48197253  0.76751177  0.15209299     1.59600
O1029       O  0.03369432  0.72575602  0.21231796    -0.80400
O1030       O  0.00762856  0.74631212  0.11194790    -1.90900
Cd1031     Cd  0.48822082  0.72221286  0.07166793     1.59900
O1032       O  0.49450627  0.75472129  0.21438534    -0.80300
O1033       O  0.47327735  0.74094209  0.01520764    -0.79000
C1034       C  0.01507769  0.82059924  0.11347950     0.83600
C1035       C  0.07990376  0.76848525  0.11072909     0.83200
O1036       O  0.00532807  0.77750443  0.01215122    -0.77900
C1037       C  0.50046523  0.67115287  0.11669556     0.84000
O1038       O  0.02465259  0.80329235  0.08734169    -0.78000
C1039       C  0.51430405  0.73905138  0.23313152     0.84100
C1040       C  0.43279298  0.72609444  0.12497876     0.84500
O1041       O  0.43831841  0.74914054  0.14594994    -0.80500
O1042       O  0.44277131  0.76748878  0.44910736    -0.78000
C1043       C  0.41932651  0.73982669  0.33082884     0.83100
O1044       O  0.00813979  0.68778757  0.40006939    -0.79100
O1045       O  0.48596856  0.73578587  0.29381827    -0.80600
O1046       O  0.01226175  0.82771248  0.35793998    -0.80400
O1047       O  0.97333561  0.80483799  0.44882810    -0.79000
Zn1048     Zn  0.45861913  0.73941809  0.40777995     1.55700
O1049       O  0.49522117  0.80893955  0.29845009    -0.80400
Cd1050     Cd  0.00558044  0.79596094  0.40564280     1.59700
Cd1051     Cd  0.02574662  0.73034124  0.37460449     1.59600
O1052       O  0.04515812  0.79121546  0.43549393    -0.80400
O1053       O  0.49232483  0.75866339  0.38114770    -1.90900
Cd1054     Cd  0.47508378  0.77057751  0.32566656     1.59900
O1055       O  0.06216217  0.74913227  0.41047740    -0.80300
O1056       O  0.43019232  0.76457852  0.31787595    -0.79000
C1057       C  0.48601011  0.68242467  0.42579712     0.83600
C1058       C  0.46424530  0.78064335  0.46587871     0.83200
O1059       O  0.42930360  0.72641313  0.36382199    -0.77900
C1060       C  0.00877374  0.82908550  0.31776509     0.84000
O1061       O  0.46983496  0.70312500  0.43811251    -0.78000
C1062       C  0.06567370  0.77248607  0.43221796     0.84100
C1063       C  0.01188075  0.73491266  0.27971630     0.84500
O1064       O  0.03351244  0.73221619  0.30575422    -0.80500
C1065       C  0.10365256  0.78817006  0.12220575     0.03700
C1066       C  0.09967232  0.81212453  0.15043967    -0.12500
C1067       C  0.12457858  0.82594909  0.16855424     0.01200
C1068       C  0.15203964  0.81308797  0.15898786    -0.11000
C1069       C  0.15490567  0.78730253  0.13566736     0.03700
C1070       C  0.13128556  0.77689322  0.11422570    -0.10400
H1071       H  0.07767468  0.81873701  0.15962188     0.09300
H1072       H  0.17186219  0.82233806  0.17166871     0.06800
H1073       H  0.13368830  0.75730317  0.09599151     0.06600
C1074       C  0.14795317  0.77234522  0.45548715     0.03700
C1075       C  0.12009802  0.76358320  0.44179566    -0.12500
C1076       C  0.09467640  0.77965504  0.45262881     0.01600
C1077       C  0.09780451  0.80473688  0.47894881    -0.11000
C1078       C  0.12582589  0.81338136  0.49448150     0.03700
C1079       C  0.15009035  0.79644275  0.48216569    -0.10400
H1080       H  0.11853648  0.74578155  0.42015816     0.09300
H1081       H  0.07859912  0.81751692  0.48699131     0.06800
H1082       H  0.17193543  0.80326898  0.49127101     0.06600
O1083       O  0.30706931  0.70462956  0.17465630    -0.78000
C1084       C  0.23362384  0.72661730  0.27399340     0.83100
O1085       O  0.24496391  0.68504318  0.11425292    -0.79100
O1086       O  0.19761141  0.77691717  0.17020787    -0.80600
O1087       O  0.26893465  0.80900685  0.12920598    -0.80400
O1088       O  0.32559451  0.74806159  0.15193678    -0.79000
Zn1089     Zn  0.26711175  0.71334269  0.19753116     1.55700
O1090       O  0.24913280  0.81009290  0.19376009    -0.80400
Cd1091     Cd  0.28740774  0.76752441  0.13145823     1.59700
Cd1092     Cd  0.23163544  0.73008817  0.11078918     1.59600
O1093       O  0.29368214  0.76496409  0.06732459    -0.80400
O1094       O  0.25521163  0.74410240  0.15856683    -1.90900
Cd1095     Cd  0.23457270  0.76829924  0.19644158     1.59900
O1096       O  0.24787909  0.75068684  0.05425463    -0.80300
O1097       O  0.22320426  0.74815771  0.25232473    -0.79000
C1098       C  0.25155732  0.67199158  0.14985177     0.83600
C1099       C  0.32722328  0.71997653  0.15626976     0.83200
O1100       O  0.25553518  0.71215403  0.26038574    -0.77900
C1101       C  0.25154556  0.82049186  0.15573522     0.84000
O1102       O  0.24211720  0.68196467  0.18373805    -0.78000
C1103       C  0.27258597  0.76209739  0.04195630     0.84100
C1104       C  0.18172695  0.76960077  0.14011998     0.84500
O1105       O  0.18861998  0.74838276  0.11626176    -0.80500
O1106       O  0.31732479  0.73820019  0.36959059    -0.78000
C1107       C  0.27570523  0.77216433  0.49733183     0.83100
O1108       O  0.24290178  0.68601656  0.44555426    -0.79100
O1109       O  0.19630312  0.78110346  0.43445466    -0.80600
O1110       O  0.24144819  0.80791437  0.31895596    -0.80400
O1111       O  0.29047205  0.74395598  0.31037980    -0.79000
Zn1112     Zn  0.28955511  0.74179474  0.41978833     1.55700
O1113       O  0.23578049  0.82678694  0.38263511    -0.80400
Cd1114     Cd  0.25289885  0.76523002  0.33762447     1.59700
Cd1115     Cd  0.22356922  0.71829589  0.40510718     1.59600
O1116       O  0.21297474  0.74643573  0.33241734    -0.80400
O1117       O  0.25249391  0.75318096  0.39791404    -1.90900
Cd1118     Cd  0.23864321  0.78872152  0.42198876     1.59900
O1119       O  0.22512844  0.70127662  0.34286028    -0.80300
O1120       O  0.25419656  0.78676037  0.48192360    -0.79000
C1121       C  0.27031176  0.68175976  0.45370123     0.83600
C1122       C  0.31415765  0.73566588  0.32940145     0.83200
O1123       O  0.29690304  0.76294636  0.47421901    -0.77900
C1124       C  0.23361709  0.82884223  0.34212684     0.84000
O1125       O  0.28974067  0.70102241  0.44386079    -0.78000
C1126       C  0.22168353  0.72316247  0.31728003     0.84100
C1127       C  0.17634341  0.76155866  0.43742491     0.84500
O1128       O  0.18136091  0.73496017  0.42704148    -0.80500
C1129       C  0.16313073  0.86804836  0.57099008     0.87000
C1130       C  0.15622193  0.83952629  0.54873510    -0.53200
C1131       C  0.13205159  0.83986444  0.02229339     0.09900
C1132       C  0.11542720  0.87022649  0.02282886     0.20900
C1133       C  0.16418422  0.89163557  0.53451547    -0.53900
C1134       C  0.13907470  0.89491657  0.01070109     0.10100
C1135       C  0.13372152  0.87475398  0.59453467    -0.53500
C1136       C  0.10835422  0.87507764  0.57050653     0.10600
H1137       H  0.16969600  0.82023795  0.05370558     0.15100
H1138       H  0.09557662  0.87091885  0.00249563     0.00900
H1139       H  0.18277005  0.90657160  0.03088318     0.15400
H1140       H  0.13331693  0.87812986  0.62787434     0.15200
C1141       C  0.14943344  0.87882629  0.75623145     0.87000
C1142       C  0.14653312  0.85130999  0.73031416    -0.53200
C1143       C  0.12448176  0.85099326  0.70076548     0.09900
C1144       C  0.10528368  0.88004568  0.70254563     0.20900
C1145       C  0.15079946  0.90446025  0.72244623    -0.53900
C1146       C  0.12749608  0.90685254  0.69554223     0.10100
C1147       C  0.11869420  0.88167161  0.77759771    -0.53500
C1148       C  0.09527951  0.88203959  0.74998172     0.10600
H1149       H  0.16147006  0.83311425  0.73483864     0.15100
H1150       H  0.08655958  0.88022350  0.68071222     0.00900
H1151       H  0.16866467  0.92049256  0.72083514     0.15400
H1152       H  0.11569010  0.88273059  0.81176969     0.15200
C1153       C  0.40742751  0.61793164  0.00572376     0.87000
C1154       C  0.40356632  0.64384142  0.53453664    -0.53200
C1155       C  0.38003366  0.64307430  0.56265174     0.09900
C1156       C  0.36095426  0.61420765  0.55744565     0.20900
C1157       C  0.40730439  0.59082165  0.53713760    -0.53900
C1158       C  0.38333236  0.58743156  0.56381187     0.10100
C1159       C  0.37732809  0.61651888  0.98269771    -0.53500
C1160       C  0.35257940  0.61505686  0.00895516     0.10600
H1161       H  0.41869676  0.66224745  0.53172466     0.15100
H1162       H  0.34138534  0.61276605  0.57885188     0.00900
H1163       H  0.42510242  0.57508504  0.53828945     0.15400
H1164       H  0.37572766  0.61835425  0.94830647     0.15200
C1165       C  0.40458292  0.63032297  0.69468491     0.87000
C1166       C  0.39913657  0.65904250  0.71750361    -0.53200
C1167       C  0.37506091  0.65926987  0.74475220     0.09900
C1168       C  0.35717100  0.62932310  0.74492084     0.20900
C1169       C  0.40525172  0.60679733  0.73078812    -0.53900
C1170       C  0.38061036  0.60441984  0.75628202     0.10100
C1171       C  0.37478339  0.62391501  0.67246359    -0.53500
C1172       C  0.34940017  0.62469208  0.69722956     0.10600
H1173       H  0.41361861  0.67795661  0.71318634     0.15100
H1174       H  0.33751424  0.62885385  0.76637124     0.00900
H1175       H  0.42323499  0.59121188  0.73321577     0.15400
H1176       H  0.37402094  0.61859938  0.63961363     0.15200
C1177       C  0.03147579  0.84852670  0.61182047     0.03700
C1178       C  0.02164933  0.87157534  0.63479036    -0.12500
C1179       C  0.03787789  0.89746783  0.63425756     0.01200
C1180       C  0.06550034  0.89990854  0.61141827    -0.11000
C1181       C  0.07711485  0.87587139  0.58976978     0.03700
C1182       C  0.05890244  0.85094189  0.58861044    -0.10400
H1183       H  0.50101493  0.86950849  0.65261203     0.09300
H1184       H  0.07772629  0.92028811  0.61015319     0.06800
H1185       H  0.06724262  0.83255315  0.57145215     0.06600
C1186       C  0.02018456  0.85583852  0.79488253     0.03700
C1187       C  0.04794954  0.85623053  0.77382498    -0.12500
C1188       C  0.06350219  0.88294637  0.76545912     0.01200
C1189       C  0.05046357  0.90942788  0.77900125    -0.11000
C1190       C  0.02238278  0.90899902  0.79990144     0.03700
C1191       C  0.00743452  0.88224313  0.80617522    -0.10400
H1192       H  0.05861110  0.83561729  0.76739248     0.09300
H1193       H  0.06299447  0.92977897  0.77608329     0.06800
H1194       H  0.48694981  0.88155630  0.82454132     0.06600
C1195       C  0.40501878  0.70900884  0.62674971     0.03700
C1196       C  0.40374633  0.68259355  0.60477980    -0.12500
C1197       C  0.37738405  0.66816620  0.59453251     0.01200
C1198       C  0.35130151  0.67965282  0.61328315    -0.11000
C1199       C  0.35308549  0.70504970  0.63928208     0.03700
C1200       C  0.37985418  0.71943754  0.64501288    -0.10400
H1201       H  0.42426801  0.67346843  0.59431059     0.09300
H1202       H  0.33005203  0.66994270  0.60663409     0.06800
H1203       H  0.38090360  0.73946059  0.66244559     0.06600
C1204       C  0.39384110  0.72690364  0.80937475     0.03700
C1205       C  0.39578375  0.70033228  0.78812737    -0.12500
C1206       C  0.37030314  0.68596132  0.77253703     0.01200
C1207       C  0.34214739  0.69811914  0.78333277    -0.11000
C1208       C  0.34053541  0.72489344  0.80590258     0.03700
C1209       C  0.36658821  0.73944779  0.81586666    -0.10400
H1210       H  0.41742809  0.69074593  0.78404544     0.09300
H1211       H  0.32203506  0.68677568  0.77518458     0.06800
H1212       H  0.36553574  0.75944076  0.83346131     0.06600
C1213       C  0.22898013  0.89757276  0.63786569     0.03700
C1214       C  0.20429001  0.89524190  0.61089483    -0.12500
C1215       C  0.19200013  0.86815383  0.59970791     0.01200
C1216       C  0.20885868  0.84302001  0.61329864    -0.11000
C1217       C  0.23332074  0.84557072  0.64162564     0.03700
C1218       C  0.24200251  0.87270325  0.65507292    -0.10400
H1219       H  0.19573662  0.91477853  0.59603653     0.09300
H1220       H  0.20321524  0.82150951  0.60289422     0.06800
H1221       H  0.26135485  0.87462081  0.67486113     0.06600
C1222       C  0.21967084  0.85535772  0.82223027     0.03700
C1223       C  0.23124954  0.88298822  0.83032289    -0.12500
C1224       C  0.21572905  0.90836892  0.81846308     0.01200
C1225       C  0.18812317  0.90605203  0.79852934    -0.11000
C1226       C  0.17674421  0.87890148  0.78621652     0.03700
C1227       C  0.19275865  0.85328718  0.79958589    -0.10400
H1228       H  0.25164057  0.88463612  0.84782648     0.09300
H1229       H  0.17578570  0.92588935  0.79125905     0.06800
H1230       H  0.18398559  0.83161700  0.79454944     0.06600
C1231       C  0.35050778  0.52077888  0.63149783     0.03700
C1232       C  0.37442978  0.51080112  0.65439834    -0.12500
C1233       C  0.40221286  0.52089085  0.64291093     0.01200
C1234       C  0.40560738  0.54512982  0.61275642    -0.11000
C1235       C  0.38068659  0.55993620  0.59463237     0.03700
C1236       C  0.35366660  0.54499587  0.60120556    -0.10400
H1237       H  0.37202106  0.99175510  0.67632184     0.09300
H1238       H  0.42762924  0.55191324  0.60318314     0.06800
H1239       H  0.33621086  0.55117304  0.58005017     0.06600
C1240       C  0.34522332  0.53543258  0.81279714     0.03700
C1241       C  0.36990564  0.52082738  0.82910708    -0.12500
C1242       C  0.39785982  0.53335232  0.82403283     0.01200
C1243       C  0.40120622  0.56114106  0.80226415    -0.11000
C1244       C  0.37657756  0.57658868  0.78473668     0.03700
C1245       C  0.34869785  0.56315907  0.79043386    -0.10400
H1246       H  0.36735047  0.00009380  0.84697788     0.09300
H1247       H  0.42314295  0.57070829  0.79948349     0.06800
H1248       H  0.32960289  0.57426907  0.77718544     0.06600
C1249       C  0.46766024  0.59730551  0.62640084     0.03700
C1250       C  0.48438124  0.62096660  0.61199325    -0.12500
C1251       C  0.47896814  0.64797059  0.62838348     0.01200
C1252       C  0.45425411  0.65203245  0.65653438    -0.11000
C1253       C  0.43321377  0.62888496  0.66538647     0.03700
C1254       C  0.44105382  0.60154126  0.64975650    -0.10400
H1255       H  0.00431450  0.61766859  0.59327987     0.09300
H1256       H  0.45138990  0.67328323  0.66979821     0.06800
H1257       H  0.42812751  0.58269517  0.66067702     0.06600
C1258       C  0.48037949  0.59849636  0.94341452     0.03700
C1259       C  0.49214260  0.62643966  0.93159450    -0.12500
C1260       C  0.47609395  0.65196824  0.94074606     0.01200
C1261       C  0.44798129  0.64872655  0.96205073    -0.11000
C1262       C  0.43628245  0.62116665  0.97686312     0.03700
C1263       C  0.45295561  0.59654702  0.96635996    -0.10400
H1264       H  0.01267676  0.62823056  0.91360961     0.09300
H1265       H  0.43477971  0.66804115  0.96660047     0.06800
H1266       H  0.44379366  0.57512475  0.97482634     0.06600
O1267       O  0.43867543  0.50644563  0.69325921    -0.78000
C1268       C  0.52327934  0.01559203  0.76440830     0.83100
O1269       O  0.00162622  0.56048071  0.60267711    -0.79100
O1270       O  0.06672821  0.00812941  0.66537053    -0.80600
O1271       O  0.49623123  0.92502826  0.65661354    -0.80400
O1272       O  0.43685970  0.98307196  0.63288016    -0.79000
Zn1273     Zn  0.48050770  0.51736567  0.68996031     1.55700
O1274       O  0.04160405  0.94176316  0.66848374    -0.80400
Cd1275     Cd  0.47783086  0.96315978  0.63183096     1.59700
Cd1276     Cd  0.01668383  0.51701763  0.60015308     1.59600
O1277       O  0.48020988  0.95570157  0.56786378    -0.80400
O1278       O  0.50204208  0.49536073  0.65257672    -1.90900
Cd1279     Cd  0.03485237  0.98270896  0.68886902     1.59900
O1280       O  0.99527066  0.50076750  0.54806390    -0.80300
O1281       O  0.03831944  0.99433253  0.75113224    -0.79000
C1282       C  0.48207361  0.56880571  0.62935136     0.83600
C1283       C  0.42708654  0.50255177  0.65731689     0.83200
O1284       O  0.50132783  0.52560442  0.74357557    -0.77900
C1285       C  0.02444494  0.92235519  0.65511128     0.84000
O1286       O  0.47483749  0.55343261  0.66182612    -0.78000
C1287       C  0.98387899  0.47602985  0.53957250     0.84100
C1288       C  0.07576969  0.99817430  0.63116939     0.84500
O1289       O  0.06144185  0.50366804  0.59699352    -0.80500
O1290       O  0.42671760  0.51717168  0.88334645    -0.78000
C1291       C  0.47583984  0.97193274  0.99543464     0.83100
O1292       O  0.01951130  0.56576693  0.91596141    -0.79100
O1293       O  0.05149399  0.95440938  0.93569041    -0.80600
O1294       O  0.50527841  0.95871272  0.80758155    -0.80400
O1295       O  0.44291895  0.00750721  0.81865429    -0.79000
Zn1296     Zn  0.46379714  0.51009462  0.91889741     1.55700
O1297       O  0.00812886  0.92839017  0.86563533    -0.80400
Cd1298     Cd  0.48530030  0.99597135  0.83469573     1.59700
Cd1299     Cd  0.03448533  0.52302739  0.89480465     1.59600
O1300       O  0.50409773  0.03565720  0.82376091    -0.80400
O1301       O  0.49794299  0.49577944  0.89354185    -1.90900
Cd1302     Cd  0.00833361  0.95660900  0.91617789     1.59900
O1303       O  0.04937157  0.52247764  0.83023016    -0.80300
O1304       O  0.98693701  0.95081793  0.97503210    -0.79000
C1305       C  0.49272266  0.57020517  0.92839706     0.83600
C1306       C  0.42355223  0.51806106  0.84304690     0.83200
O1307       O  0.46257273  0.49348004  0.97720714    -0.77900
C1308       C  0.01148755  0.93365175  0.82540862     0.84000
O1309       O  0.47400107  0.54963883  0.92855971    -0.78000
C1310       C  0.02721331  0.52701765  0.80663399     0.84100
C1311       C  0.07142935  0.97353155  0.94145014     0.84500
O1312       O  0.06747568  0.50089155  0.93129280    -0.80500
C1313       C  0.10045105  0.97739647  0.63290561     0.03700
C1314       C  0.10229069  0.95385892  0.66451246    -0.12500
C1315       C  0.12564176  0.93352725  0.66413731     0.01200
C1316       C  0.15056219  0.94282327  0.63982774    -0.11000
C1317       C  0.15003358  0.96808369  0.61174140     0.03700
C1318       C  0.12407233  0.98333058  0.60562624    -0.10400
H1319       H  0.08700215  0.95219108  0.69093428     0.09300
H1320       H  0.17124593  0.93254778  0.64712332     0.06800
H1321       H  0.12366281  0.50248808  0.58388026     0.06600
C1322       C  0.10077989  0.96312910  0.95697310     0.03700
C1323       C  0.10512719  0.93467662  0.97656037    -0.12500
C1324       C  0.13397323  0.92392334  0.98516472     0.01200
C1325       C  0.15830292  0.94240500  0.97172096    -0.11000
C1326       C  0.15402837  0.97077593  0.95288930     0.03700
C1327       C  0.12534721  0.98090008  0.94687454    -0.10400
H1328       H  0.08605974  0.92117202  0.98525903     0.09300
H1329       H  0.18073487  0.93455701  0.97404159     0.06800
H1330       H  0.12227085  0.50225213  0.93113650     0.06600
O1331       O  0.19798707  0.96524991  0.58557067    -0.78000
C1332       C  0.27173285  0.48675576  0.49787688     0.83100
O1333       O  0.24903013  0.93964601  0.67127031    -0.79100
O1334       O  0.31596917  0.49096055  0.59976565    -0.80600
O1335       O  0.24262178  0.56951715  0.60842806    -0.80400
O1336       O  0.18194668  0.50975053  0.60367981    -0.79000
Zn1337     Zn  0.24017494  0.96847638  0.57747241     1.55700
O1338       O  0.28863549  0.55388978  0.59943272    -0.80400
Cd1339     Cd  0.22090005  0.52944527  0.62475640     1.59700
Cd1340     Cd  0.26482430  0.98334452  0.66922463     1.59600
O1341       O  0.21229718  0.53586368  0.68937739    -0.80400
O1342       O  0.25003586  0.99895396  0.61354616    -1.90900
Cd1343     Cd  0.28227215  0.51385605  0.57958204     1.59900
O1344       O  0.24462371  0.00484869  0.71884330    -0.80300
O1345       O  0.28201719  0.50860631  0.51669408    -0.79000
C1346       C  0.24599374  0.92488081  0.63796068     0.83600
C1347       C  0.17778159  0.98215995  0.59773264     0.83200
O1348       O  0.25448576  0.96831605  0.51664750    -0.77900
C1349       C  0.27082932  0.57333941  0.60990172     0.84000
O1350       O  0.25719173  0.93376226  0.60287883    -0.78000
C1351       C  0.22485132  0.02453945  0.72194889     0.84100
C1352       C  0.32433719  0.50181254  0.63364893     0.84500
O1353       O  0.30927166  0.99758018  0.66796207    -0.80500
O1354       O  0.17407668  0.99849341  0.89387934    -0.78000
C1355       C  0.21725578  0.53337704  0.76530694     0.83100
O1356       O  0.25405988  0.94234477  0.83600598    -0.79100
O1357       O  0.29512600  0.54319845  0.82109047    -0.80600
O1358       O  0.24352109  0.56104667  0.94780331    -0.80400
O1359       O  0.20323272  0.49203836  0.95049020    -0.79000
Zn1360     Zn  0.20482675  0.99895485  0.84683680     1.55700
O1361       O  0.26519995  0.57885871  0.88815363    -0.80400
Cd1362     Cd  0.23742341  0.52017579  0.92570760     1.59700
Cd1363     Cd  0.27146364  0.97837519  0.86628972     1.59600
O1364       O  0.27995498  0.51001671  0.93354082    -0.80400
O1365       O  0.24108574  0.01130603  0.86654407    -1.90900
Cd1366     Cd  0.25389812  0.54864409  0.84103706     1.59900
O1367       O  0.27504562  0.96338487  0.93062431    -0.80300
O1368       O  0.23358077  0.55279264  0.78202178    -0.79000
C1369       C  0.22655784  0.93741133  0.83036878     0.83600
C1370       C  0.17849284  0.98811754  0.93180052     0.83200
O1371       O  0.19995866  0.01639361  0.78736010    -0.77900
C1372       C  0.26127271  0.57902508  0.92861880     0.84000
O1373       O  0.20729401  0.95704538  0.83552666    -0.78000
C1374       C  0.27779920  0.98577181  0.95266729     0.84100
C1375       C  0.31542595  0.52441446  0.82477602     0.84500
O1376       O  0.31091348  0.99833057  0.84108090    -0.80500
C1377       C  0.27222807  0.64699921  0.65254984     0.03700
C1378       C  0.29647951  0.64446800  0.68171000    -0.12500
C1379       C  0.31823185  0.62237609  0.67766961     0.01200
C1380       C  0.31049381  0.59918643  0.65124735    -0.11000
C1381       C  0.28361291  0.59974149  0.62770106     0.03700
C1382       C  0.26668839  0.62472915  0.62562312    -0.10400
H1383       H  0.29909594  0.65976125  0.70659484     0.09300
H1384       H  0.32459661  0.58020149  0.65091758     0.06800
H1385       H  0.24736162  0.62576271  0.60550376     0.06600
C1386       C  0.27718344  0.60102202  0.95347020     0.03700
C1387       C  0.26481126  0.62864816  0.95402313    -0.12500
C1388       C  0.28056347  0.65235790  0.96889429     0.01200
C1389       C  0.30858041  0.64756189  0.98818633    -0.11000
C1390       C  0.32125964  0.61909794  0.99140129     0.03700
C1391       C  0.30536432  0.59591862  0.97249195    -0.10400
H1392       H  0.24388830  0.63223067  0.93817525     0.09300
H1393       H  0.32115786  0.66616666  0.99872429     0.06800
H1394       H  0.31514904  0.57431294  0.97154509     0.06600
O1395       O  0.06984353  0.76926987  0.57297370    -0.78000
C1396       C  0.98219960  0.76528153  0.49857651     0.83100
O1397       O  0.49496440  0.81276532  0.64105492    -0.79100
O1398       O  0.45102828  0.71631486  0.59910549    -0.80600
O1399       O  0.01586602  0.68211884  0.64568351    -0.80400
O1400       O  0.07159547  0.74931985  0.63903042    -0.79000
Zn1401     Zn  0.02686550  0.76749094  0.56669286     1.55700
O1402       O  0.50231814  0.68076194  0.57814951    -0.80400
Cd1403     Cd  0.03535648  0.72307553  0.64726935     1.59700
Cd1404     Cd  0.48197251  0.76751180  0.65209296     1.59600
O1405       O  0.03369427  0.72575608  0.71231803    -0.80400
O1406       O  0.00762859  0.74631215  0.61194795    -1.90900
Cd1407     Cd  0.48822077  0.72221289  0.57166790     1.59900
O1408       O  0.49450626  0.75472133  0.71438530    -0.80300
O1409       O  0.47327726  0.74094214  0.51520764    -0.79000
C1410       C  0.01507770  0.82059927  0.61347967     0.83600
C1411       C  0.07990377  0.76848529  0.61072919     0.83200
O1412       O  0.00532813  0.77750451  0.51215133    -0.77900
C1413       C  0.50046521  0.67115287  0.61669550     0.84000
O1414       O  0.02465262  0.80329237  0.58734190    -0.78000
C1415       C  0.51430404  0.73905143  0.73313147     0.84100
C1416       C  0.43279294  0.72609447  0.62497878     0.84500
O1417       O  0.43831837  0.74914058  0.64594997    -0.80500
O1418       O  0.44277133  0.76748870  0.94910737    -0.78000
C1419       C  0.41932650  0.73982660  0.83082880     0.83100
O1420       O  0.00813975  0.68778755  0.90006940    -0.79100
O1421       O  0.48596855  0.73578589  0.79381821    -0.80600
O1422       O  0.01226177  0.82771253  0.85794014    -0.80400
O1423       O  0.97333548  0.80483797  0.94882814    -0.79000
Zn1424     Zn  0.45861913  0.73941807  0.90777991     1.55700
O1425       O  0.49522107  0.80893957  0.79845008    -0.80400
Cd1426     Cd  0.00558040  0.79596097  0.90564294     1.59700
Cd1427     Cd  0.02574659  0.73034125  0.87460453     1.59600
O1428       O  0.04515806  0.79121544  0.93549409    -0.80400
O1429       O  0.49232485  0.75866338  0.88114766    -1.90900
Cd1430     Cd  0.47508375  0.77057750  0.82566654     1.59900
O1431       O  0.06216214  0.74913232  0.91047739    -0.80300
O1432       O  0.43019229  0.76457844  0.81787594    -0.79000
C1433       C  0.48601007  0.68242468  0.92579708     0.83600
C1434       C  0.46424532  0.78064328  0.96587871     0.83200
O1435       O  0.42930361  0.72641304  0.86382194    -0.77900
C1436       C  0.00877378  0.82908555  0.81776525     0.84000
O1437       O  0.46983495  0.70312502  0.93811255    -0.78000
C1438       C  0.06567366  0.77248609  0.93221799     0.84100
C1439       C  0.01188069  0.73491272  0.77971635     0.84500
O1440       O  0.03351239  0.73221624  0.80575425    -0.80500
C1441       C  0.10365260  0.78817009  0.62220580     0.03700
C1442       C  0.09967236  0.81212456  0.65043974    -0.12500
C1443       C  0.12457863  0.82594913  0.66855424     0.01200
C1444       C  0.15203966  0.81308801  0.65898778    -0.11000
C1445       C  0.15490571  0.78730258  0.63566727     0.03700
C1446       C  0.13128559  0.77689325  0.61422561    -0.10400
H1447       H  0.07767474  0.81873701  0.65962203     0.09300
H1448       H  0.17186226  0.82233813  0.67166865     0.06800
H1449       H  0.13368831  0.75730323  0.59599141     0.06600
C1450       C  0.14795314  0.77234518  0.95548716     0.03700
C1451       C  0.12009800  0.76358319  0.94179560    -0.12500
C1452       C  0.09467638  0.77965504  0.95262879     0.01600
C1453       C  0.09780450  0.80473685  0.97894883    -0.11000
C1454       C  0.12582587  0.81338129  0.99448156     0.03700
C1455       C  0.15009032  0.79644267  0.98216579    -0.10400
H1456       H  0.11853646  0.74578161  0.92015801     0.09300
H1457       H  0.07859911  0.81751692  0.98699132     0.06800
H1458       H  0.17193541  0.80326882  0.99127122     0.06600
O1459       O  0.30706928  0.70462950  0.67465631    -0.78000
C1460       C  0.23362388  0.72661727  0.77399340     0.83100
O1461       O  0.24496389  0.68504311  0.61425292    -0.79100
O1462       O  0.19761139  0.77691716  0.67020790    -0.80600
O1463       O  0.26893466  0.80900686  0.62920603    -0.80400
O1464       O  0.32559448  0.74806153  0.65193681    -0.79000
Zn1465     Zn  0.26711172  0.71334263  0.69753115     1.55700
O1466       O  0.24913279  0.81009290  0.69376011    -0.80400
Cd1467     Cd  0.28740772  0.76752438  0.63145823     1.59700
Cd1468     Cd  0.23163543  0.73008812  0.61078916     1.59600
O1469       O  0.29368214  0.76496410  0.56732459    -0.80400
O1470       O  0.25521160  0.74410234  0.65856681    -1.90900
Cd1471     Cd  0.23457271  0.76829922  0.69644158     1.59900
O1472       O  0.24787910  0.75068682  0.55425461    -0.80300
O1473       O  0.22320430  0.74815767  0.75232473    -0.79000
C1474       C  0.25155733  0.67199150  0.64985177     0.83600
C1475       C  0.32722326  0.71997647  0.65626980     0.83200
O1476       O  0.25553520  0.71215398  0.76038575    -0.77900
C1477       C  0.25154558  0.82049188  0.65573526     0.84000
O1478       O  0.24211720  0.68196457  0.68373806    -0.78000
C1479       C  0.27258597  0.76209740  0.54195629     0.84100
C1480       C  0.18172697  0.76960080  0.64011994     0.84500
O1481       O  0.18861999  0.74838280  0.61626171    -0.80500
O1482       O  0.31732479  0.73820015  0.86959056    -0.78000
C1483       C  0.27570523  0.77216429  0.99733183     0.83100
O1484       O  0.24290176  0.68601662  0.94555425    -0.79100
O1485       O  0.19630309  0.78110349  0.93445464    -0.80600
O1486       O  0.24144824  0.80791441  0.81895600    -0.80400
O1487       O  0.29047207  0.74395602  0.81037977    -0.79000
Zn1488     Zn  0.28955512  0.74179477  0.91978830     1.55700
O1489       O  0.23578056  0.82678698  0.88263515    -0.80400
Cd1490     Cd  0.25289888  0.76523006  0.83762445     1.59700
Cd1491     Cd  0.22356921  0.71829593  0.90510714     1.59600
O1492       O  0.21297479  0.74643574  0.83241731    -0.80400
O1493       O  0.25249392  0.75318100  0.89791400    -1.90900
Cd1494     Cd  0.23864319  0.78872153  0.92198875     1.59900
O1495       O  0.22512843  0.70127662  0.84286030    -0.80300
O1496       O  0.25419655  0.78676032  0.98192359    -0.79000
C1497       C  0.27031173  0.68175980  0.95370120     0.83600
C1498       C  0.31415765  0.73566584  0.82940141     0.83200
O1499       O  0.29690305  0.76294631  0.97421902    -0.77900
C1500       C  0.23361716  0.82884228  0.84212687     0.84000
O1501       O  0.28974065  0.70102244  0.94386075    -0.78000
C1502       C  0.22168357  0.72316247  0.81728003     0.84100
C1503       C  0.17634339  0.76155867  0.93742490     0.84500
O1504       O  0.18136091  0.73496018  0.92704146    -0.80500
C1505       C  0.66310567  0.36801084  0.07095549     0.87000
C1506       C  0.65617714  0.33947802  0.04873195    -0.53200
C1507       C  0.63200447  0.33981389  0.52229052     0.09900
C1508       C  0.61539622  0.37018589  0.52280454     0.20900
C1509       C  0.66416674  0.39157764  0.03446053    -0.53900
C1510       C  0.63905614  0.39486187  0.51064997     0.10100
C1511       C  0.63370127  0.37474177  0.09450041    -0.53500
C1512       C  0.60832904  0.37505836  0.07048063     0.10600
H1513       H  0.66963769  0.32018448  0.55373146     0.15100
H1514       H  0.59554400  0.37087905  0.50247482     0.00900
H1515       H  0.68275892  0.40650578  0.53082530     0.15400
H1516       H  0.63330255  0.37813749  0.12783463     0.15200
C1517       C  0.64945650  0.37884804  0.25621442     0.87000
C1518       C  0.64656426  0.35133366  0.23028940    -0.53200
C1519       C  0.62450786  0.35101212  0.20074699     0.09900
C1520       C  0.60530868  0.38006034  0.20252254     0.20900
C1521       C  0.65081948  0.40448350  0.22243203    -0.53900
C1522       C  0.62751597  0.40686790  0.19552389     0.10100
C1523       C  0.61871560  0.38168693  0.27757485    -0.53500
C1524       C  0.59530526  0.38205346  0.24995263     0.10600
H1525       H  0.66150915  0.33314313  0.23480741     0.15100
H1526       H  0.58658535  0.38023894  0.18068496     0.00900
H1527       H  0.66867967  0.42052113  0.22082516     0.15400
H1528       H  0.61570720  0.38274330  0.31174652     0.15200
C1529       C  0.90740656  0.11787740  0.50578853     0.87000
C1530       C  0.90355819  0.14378326  0.03460926    -0.53200
C1531       C  0.88002311  0.14302647  0.06271955     0.09900
C1532       C  0.86093398  0.11416477  0.05750563     0.20900
C1533       C  0.90727447  0.09076488  0.03718912    -0.53900
C1534       C  0.88330659  0.08738003  0.06386225     0.10100
C1535       C  0.87730635  0.11648266  0.48275883    -0.53500
C1536       C  0.85255675  0.11502501  0.50901501     0.10600
H1537       H  0.91869652  0.16218325  0.03178631     0.15100
H1538       H  0.84136476  0.11272596  0.07890883     0.00900
H1539       H  0.92506578  0.07502310  0.03835075     0.15400
H1540       H  0.87570725  0.11831994  0.44836765     0.15200
C1541       C  0.90456668  0.13030490  0.19466562     0.87000
C1542       C  0.89910646  0.15905246  0.21740482    -0.53200
C1543       C  0.87503055  0.15930980  0.24465154     0.09900
C1544       C  0.85715541  0.12934923  0.24490135     0.20900
C1545       C  0.90524678  0.10682211  0.23082140    -0.53900
C1546       C  0.88060466  0.10446170  0.25631579     0.10100
C1547       C  0.87476778  0.12385884  0.17246489    -0.53500
C1548       C  0.84938422  0.12466102  0.19722718     0.10600
H1549       H  0.91356967  0.17797287  0.21300622     0.15100
H1550       H  0.83749915  0.12889550  0.26635238     0.00900
H1551       H  0.92323053  0.09123758  0.23327249     0.15400
H1552       H  0.87400607  0.11851071  0.13962924     0.15200
C1553       C  0.53146431  0.34849348  0.11185697     0.03700
C1554       C  0.52162731  0.37155383  0.13479470    -0.12500
C1555       C  0.53784560  0.39745444  0.13422802     0.01200
C1556       C  0.56546994  0.39989268  0.11139040    -0.11000
C1557       C  0.57709049  0.37584990  0.08975795     0.03700
C1558       C  0.55888643  0.35091099  0.08863278    -0.10400
H1559       H  0.00099313  0.36948954  0.15261731     0.09300
H1560       H  0.57769135  0.42027592  0.11011245     0.06800
H1561       H  0.56723077  0.33251694  0.07149021     0.06600
C1562       C  0.52020664  0.35582881  0.29475546     0.03700
C1563       C  0.54796569  0.35623693  0.27368873    -0.12500
C1564       C  0.56352977  0.38295480  0.26541333     0.01200
C1565       C  0.55049966  0.40942399  0.27901295    -0.11000
C1566       C  0.52241599  0.40898241  0.29990012     0.03700
C1567       C  0.50746578  0.38222416  0.30612118    -0.10400
H1568       H  0.55861988  0.33562995  0.26719730     0.09300
H1569       H  0.56303614  0.42977327  0.27614015     0.06800
H1570       H  0.98697938  0.38152398  0.32448280     0.06600
C1571       C  0.90501005  0.20897706  0.12680152     0.03700
C1572       C  0.90373540  0.18256584  0.10482018    -0.12500
C1573       C  0.87737486  0.16812715  0.09459031     0.01200
C1574       C  0.85129343  0.17961187  0.11334636    -0.11000
C1575       C  0.85307601  0.20501153  0.13934051     0.03700
C1576       C  0.87984462  0.21940237  0.14506945    -0.10400
H1577       H  0.92425635  0.17344971  0.09433765     0.09300
H1578       H  0.83004453  0.16989876  0.10670258     0.06800
H1579       H  0.88089265  0.23942488  0.16250344     0.06600
C1580       C  0.89372459  0.22714180  0.30893265     0.03700
C1581       C  0.89570743  0.20056012  0.28772053    -0.12500
C1582       C  0.87024097  0.18606182  0.27232008     0.01200
C1583       C  0.84206822  0.19812976  0.28324199    -0.11000
C1584       C  0.84041641  0.22492238  0.30576793     0.03700
C1585       C  0.86644077  0.23958032  0.31558462    -0.10400
H1586       H  0.91737646  0.19103930  0.28358829     0.09300
H1587       H  0.82197454  0.18669996  0.27523677     0.06800
H1588       H  0.86535897  0.25956708  0.33318980     0.06600
C1589       C  0.72896922  0.39755138  0.13781361     0.03700
C1590       C  0.70426600  0.39522027  0.11085811    -0.12500
C1591       C  0.69198610  0.36812656  0.09965603     0.01200
C1592       C  0.70886465  0.34299645  0.11321014    -0.11000
C1593       C  0.73333849  0.34554745  0.14151548     0.03700
C1594       C  0.74201172  0.37267874  0.15497989    -0.10400
H1595       H  0.69569589  0.41475998  0.09601861     0.09300
H1596       H  0.70322366  0.32148560  0.10280327     0.06800
H1597       H  0.76136940  0.37459582  0.17475751     0.06600
C1598       C  0.71962596  0.35534278  0.32233588     0.03700
C1599       C  0.73122183  0.38296540  0.33044247    -0.12500
C1600       C  0.71573875  0.40835866  0.31852699     0.01200
C1601       C  0.68815492  0.40606270  0.29852419    -0.11000
C1602       C  0.67675822  0.37891784  0.28621701     0.03700
C1603       C  0.69273409  0.35329263  0.29963874    -0.10400
H1604       H  0.75159581  0.38459934  0.34798945     0.09300
H1605       H  0.67584458  0.42591099  0.29121597     0.06800
H1606       H  0.68394484  0.33162947  0.29459582     0.06600
C1607       C  0.85051786  0.02067441  0.13144726     0.03700
C1608       C  0.87444160  0.01068476  0.15433500    -0.12500
C1609       C  0.90221883  0.02081803  0.14290317     0.01200
C1610       C  0.90559937  0.04508151  0.11278968    -0.11000
C1611       C  0.88067152  0.05987721  0.09466484     0.03700
C1612       C  0.85366363  0.04491426  0.10119853    -0.10400
H1613       H  0.87200217  0.49189129  0.17642002     0.09300
H1614       H  0.92761773  0.05188701  0.10323822     0.06800
H1615       H  0.83620810  0.05109180  0.08004407     0.06600
C1616       C  0.84523390  0.03541766  0.31269995     0.03700
C1617       C  0.86991547  0.02083096  0.32904583    -0.12500
C1618       C  0.89785704  0.03339923  0.32407350     0.01200
C1619       C  0.90119319  0.06120652  0.30235150    -0.11000
C1620       C  0.87656787  0.07662690  0.28476278     0.03700
C1621       C  0.84870055  0.06315627  0.29036534    -0.10400
H1622       H  0.86733534  0.50010400  0.34707255     0.09300
H1623       H  0.92311989  0.07080320  0.29963126     0.06800
H1624       H  0.82960789  0.07424847  0.27707761     0.06600
C1625       C  0.96762148  0.09726832  0.12634171     0.03700
C1626       C  0.98432196  0.12093242  0.11189007    -0.12500
C1627       C  0.97893571  0.14792989  0.12831744     0.01200
C1628       C  0.95424261  0.15199028  0.15650438    -0.11000
C1629       C  0.93319687  0.12884944  0.16536707     0.03700
C1630       C  0.94103301  0.10150143  0.14974754    -0.10400
H1631       H  0.50423765  0.11763706  0.09313690     0.09300
H1632       H  0.95139986  0.17323708  0.16978778     0.06800
H1633       H  0.92812093  0.08265541  0.16071043     0.06600
C1634       C  0.98040524  0.09848857  0.44355802     0.03700
C1635       C  0.99211115  0.12644222  0.43166005    -0.12500
C1636       C  0.97600283  0.15195134  0.44072819     0.01200
C1637       C  0.94789511  0.14867700  0.46203883    -0.11000
C1638       C  0.93626284  0.12111561  0.47694179     0.03700
C1639       C  0.95299678  0.09651531  0.46653344    -0.10400
H1640       H  0.51262959  0.12824997  0.41363992     0.09300
H1641       H  0.93464273  0.16796371  0.46654491     0.06800
H1642       H  0.94388268  0.07508261  0.47504866     0.06600
O1643       O  0.93870769  0.00643738  0.19324694    -0.78000
C1644       C  0.02326813  0.51557319  0.26439952     0.83100
O1645       O  0.50160430  0.06045674  0.10261209    -0.79100
O1646       O  0.56669605  0.50811200  0.16537399    -0.80600
O1647       O  0.99618862  0.42502619  0.15652724    -0.80400
O1648       O  0.93682377  0.48312119  0.13285810    -0.79000
Zn1649     Zn  0.98054006  0.01736124  0.18994526     1.55700
O1650       O  0.54155882  0.44175689  0.16843911    -0.80400
Cd1651     Cd  0.97778317  0.46318025  0.13181261     1.59700
Cd1652     Cd  0.51671065  0.01700561  0.10013143     1.59600
O1653       O  0.98017472  0.45574876  0.06784193    -0.80400
O1654       O  0.00208315  0.99535525  0.15257201    -1.90900
Cd1655     Cd  0.53481111  0.48269618  0.18885199     1.59900
O1656       O  0.49530674  0.00071583  0.04806166    -0.80300
O1657       O  0.53829919  0.49431154  0.25111198    -0.79000
C1658       C  0.98205810  0.06877934  0.12929846     0.83600
C1659       C  0.92711093  0.00250797  0.15732018     0.83200
O1660       O  0.00134609  0.02561971  0.24356602    -0.77900
C1661       C  0.52440344  0.42235041  0.15505201     0.84000
O1662       O  0.97485047  0.05341514  0.16179332    -0.78000
C1663       C  0.48390619  0.97597913  0.03958590     0.84100
C1664       C  0.57573808  0.49816046  0.13117160     0.84500
O1665       O  0.56147924  0.00368748  0.09698662    -0.80500
O1666       O  0.92672962  0.01725561  0.38339722    -0.78000
C1667       C  0.97584303  0.47197895  0.49541180     0.83100
O1668       O  0.51953032  0.06578336  0.41602714    -0.79100
O1669       O  0.55149088  0.45438684  0.43566438    -0.80600
O1670       O  0.00531112  0.45869313  0.30757885    -0.80400
O1671       O  0.94294636  0.50750126  0.31859447    -0.79000
Zn1672     Zn  0.96379485  0.01010606  0.41896754     1.55700
O1673       O  0.50812052  0.42836284  0.36563075    -0.80400
Cd1674     Cd  0.98532124  0.49595747  0.33466070     1.59700
Cd1675     Cd  0.53447708  0.02304676  0.39483708     1.59600
O1676       O  0.00411719  0.53564869  0.32376089    -0.80400
O1677       O  0.99793319  0.99579674  0.39357926    -1.90900
Cd1678     Cd  0.50832936  0.45659541  0.41616337     1.59900
O1679       O  0.54935664  0.02250151  0.33025927    -0.80300
O1680       O  0.48693943  0.45085049  0.47503539    -0.79000
C1681       C  0.99275274  0.07020543  0.42851965     0.83600
C1682       C  0.92354756  0.01811150  0.34310056     0.83200
O1683       O  0.96255168  0.99343484  0.47725749    -0.77900
C1684       C  0.51150549  0.43362886  0.32540818     0.84000
O1685       O  0.97403778  0.04963270  0.42868791    -0.78000
C1686       C  0.52720373  0.02703472  0.30664890     0.84100
C1687       C  0.57143016  0.47350478  0.44142450     0.84500
O1688       O  0.56747003  0.00091669  0.43131714    -0.80500
C1689       C  0.60043291  0.47739938  0.13290406     0.03700
C1690       C  0.60227250  0.45384676  0.16448657    -0.12500
C1691       C  0.62564671  0.43354158  0.16412767     0.01200
C1692       C  0.65056647  0.44285651  0.13983682    -0.11000
C1693       C  0.65003282  0.46812745  0.11177591     0.03700
C1694       C  0.62406861  0.48337092  0.10566494    -0.10400
H1695       H  0.58696707  0.45214928  0.19088517     0.09300
H1696       H  0.67125390  0.43258124  0.14711944     0.06800
H1697       H  0.62366673  0.00243505  0.08381746     0.06600
C1698       C  0.60077698  0.46309445  0.45695472     0.03700
C1699       C  0.60511960  0.43463058  0.47650777    -0.12500
C1700       C  0.63396285  0.42387394  0.48512091     0.01200
C1701       C  0.65829644  0.44236208  0.47170646    -0.11000
C1702       C  0.65402626  0.47074818  0.45292264     0.03700
C1703       C  0.62534588  0.48087475  0.44690715    -0.10400
H1704       H  0.58605022  0.42112064  0.48517642     0.09300
H1705       H  0.68072786  0.43451184  0.47401872     0.06800
H1706       H  0.62226906  0.00226616  0.43107085     0.06600
O1707       O  0.69798360  0.46527447  0.08562755    -0.78000
C1708       C  0.77174749  0.98674814  0.99782522     0.83100
O1709       O  0.74903264  0.43961638  0.17125217    -0.79100
O1710       O  0.81594450  0.99090310  0.09971133    -0.80600
O1711       O  0.74261757  0.06949988  0.10834837    -0.80400
O1712       O  0.68194014  0.00971356  0.10366194    -0.79000
Zn1713     Zn  0.74016312  0.46849464  0.07751170     1.55700
O1714       O  0.78863701  0.05386804  0.09941773    -0.80400
Cd1715     Cd  0.72089088  0.02943480  0.12470430     1.59700
Cd1716     Cd  0.76482801  0.48332895  0.16926213     1.59600
O1717       O  0.71229530  0.03587392  0.18932560    -0.80400
O1718       O  0.75004174  0.49895846  0.11359716    -1.90900
Cd1719     Cd  0.78226973  0.01384205  0.07953580     1.59900
O1720       O  0.74458975  0.50479609  0.21888867    -0.80300
O1721       O  0.78200749  0.00861116  0.01664067    -0.79000
C1722       C  0.74597906  0.42486617  0.13792845     0.83600
C1723       C  0.67778145  0.48219597  0.09776708     0.83200
O1724       O  0.75444918  0.46834279  0.01669174    -0.77900
C1725       C  0.77082453  0.07331890  0.10986488     0.84000
O1726       O  0.75717040  0.43376131  0.10285099    -0.78000
C1727       C  0.72482917  0.52449866  0.22199899     0.84100
C1728       C  0.82433860  0.00172990  0.13359929     0.84500
O1729       O  0.80926591  0.49764244  0.16800737    -0.80500
O1730       O  0.67407519  0.49848493  0.39393923    -0.78000
C1731       C  0.71727791  0.03342416  0.26525519     0.83100
O1732       O  0.75407227  0.44234064  0.33606225    -0.79100
O1733       O  0.79514389  0.04318181  0.32102260    -0.80600
O1734       O  0.74347563  0.06103314  0.44774578    -0.80400
O1735       O  0.70324020  0.99203775  0.45042189    -0.79000
Zn1736     Zn  0.70482593  0.49893329  0.34691494     1.55700
O1737       O  0.76526103  0.07881326  0.38816202    -0.80400
Cd1738     Cd  0.73742475  0.02016556  0.42563630     1.59700
Cd1739     Cd  0.77145226  0.47838018  0.36636278     1.59600
O1740       O  0.77995729  0.01002063  0.43349041    -0.80400
O1741       O  0.74107468  0.51131105  0.36661578    -1.90900
Cd1742     Cd  0.75393019  0.04864024  0.34099916     1.59900
O1743       O  0.77501852  0.46338309  0.43068968    -0.80300
O1744       O  0.73362018  0.05282056  0.28198201    -0.79000
C1745       C  0.72656919  0.43739673  0.33045081     0.83600
C1746       C  0.67849045  0.48810505  0.43185729     0.83200
O1747       O  0.69995844  0.51633093  0.28742152    -0.77900
C1748       C  0.76127993  0.07898473  0.42861621     0.84000
O1749       O  0.70730146  0.45702205  0.33563722    -0.78000
C1750       C  0.77778508  0.48577165  0.45272414     0.84100
C1751       C  0.81543861  0.02439105  0.32467079     0.84500
O1752       O  0.81090172  0.49835750  0.34119957    -0.80500
C1753       C  0.77220396  0.14696228  0.15257897     0.03700
C1754       C  0.79645863  0.14442814  0.18173179    -0.12500
C1755       C  0.81821463  0.12234166  0.17767369     0.01200
C1756       C  0.81047998  0.09915895  0.15123655    -0.11000
C1757       C  0.78359749  0.09971581  0.12769387     0.03700
C1758       C  0.76666440  0.12469841  0.12564184    -0.10400
H1759       H  0.79907602  0.15971770  0.20662103     0.09300
H1760       H  0.82459135  0.08018014  0.15088079     0.06800
H1761       H  0.74733559  0.12573498  0.10552684     0.06600
C1762       C  0.77717077  0.10096755  0.45351381     0.03700
C1763       C  0.76475971  0.12857310  0.45414028    -0.12500
C1764       C  0.78049928  0.15229224  0.46900325     0.01200
C1765       C  0.80852505  0.14751060  0.48828446    -0.11000
C1766       C  0.82123301  0.11905621  0.49146209     0.03700
C1767       C  0.80536266  0.09587907  0.47250833    -0.10400
H1768       H  0.74382496  0.13214107  0.43831836     0.09300
H1769       H  0.82108962  0.16612099  0.49883134     0.06800
H1770       H  0.81517199  0.07428668  0.47151363     0.06600
O1771       O  0.56983590  0.26926479  0.07301713    -0.78000
C1772       C  0.48218981  0.26526532  0.99860494     0.83100
O1773       O  0.99499307  0.31270743  0.14115698    -0.79100
O1774       O  0.95101270  0.21629483  0.09913476    -0.80600
O1775       O  0.51584931  0.18205858  0.14563262    -0.80400
O1776       O  0.57158014  0.24930729  0.13906722    -0.79000
Zn1777     Zn  0.52685841  0.26746051  0.06672579     1.55700
O1778       O  0.00229069  0.18073007  0.07810159    -0.80400
Cd1779     Cd  0.53537342  0.22300314  0.14725315     1.59700
Cd1780     Cd  0.98200036  0.26744508  0.15218259     1.59600
O1781       O  0.53373106  0.22562528  0.21231213    -0.80400
O1782       O  0.50763179  0.24626142  0.11197999    -1.90900
Cd1783     Cd  0.98820280  0.22218602  0.07168443     1.59900
O1784       O  0.99456333  0.25461434  0.21445789    -0.80300
O1785       O  0.97325986  0.24092900  0.01523629    -0.79000
C1786       C  0.51507594  0.32055767  0.11354207     0.83600
C1787       C  0.57988892  0.26848033  0.11077681     0.83200
O1788       O  0.50532453  0.27747974  0.01217623    -0.77900
C1789       C  0.00044234  0.17110590  0.11663961     0.84000
O1790       O  0.52463400  0.30326028  0.08737904    -0.78000
C1791       C  0.01435994  0.23891916  0.23316416     0.84100
C1792       C  0.93278969  0.22605852  0.12503956     0.84500
O1793       O  0.93833383  0.24908248  0.14605166    -0.80500
O1794       O  0.94273550  0.26748295  0.44918387    -0.78000
C1795       C  0.91920546  0.24007409  0.33037809     0.83100
O1796       O  0.50810341  0.18778422  0.40017234    -0.79100
O1797       O  0.98604289  0.23555711  0.29387165    -0.80600
O1798       O  0.51208011  0.32774231  0.35778970    -0.80400
O1799       O  0.47334071  0.30480328  0.44880406    -0.79000
Zn1800     Zn  0.95841892  0.23954089  0.40754236     1.55700
O1801       O  0.99545094  0.30881876  0.29815665    -0.80400
Cd1802     Cd  0.50549726  0.29596489  0.40547876     1.59700
Cd1803     Cd  0.52567329  0.23031427  0.37460263     1.59600
O1804       O  0.54511478  0.29126519  0.43527107    -0.80400
O1805       O  0.99222107  0.25867416  0.38097412    -1.90900
Cd1806     Cd  0.97515570  0.27052611  0.32533423     1.59900
O1807       O  0.56207330  0.24910216  0.41047900    -0.80300
O1808       O  0.93028349  0.26466749  0.31714903    -0.79000
C1809       C  0.98582479  0.18240371  0.42561974     0.83600
C1810       C  0.96424625  0.28062048  0.46588865     0.83200
O1811       O  0.92899079  0.22679577  0.36360238    -0.77900
C1812       C  0.50879179  0.32905359  0.31757320     0.84000
O1813       O  0.96942072  0.20305600  0.43750735    -0.78000
C1814       C  0.56560453  0.27249580  0.43211970     0.84100
C1815       C  0.51194679  0.23473348  0.27974502     0.84500
O1816       O  0.53357590  0.23208022  0.30578513    -0.80500
C1817       C  0.60364231  0.28816065  0.12225814     0.03700
C1818       C  0.59967315  0.31212799  0.15047249    -0.12500
C1819       C  0.62458885  0.32596054  0.16855290     0.01200
C1820       C  0.65204608  0.31309959  0.15897362    -0.11000
C1821       C  0.65490068  0.28729773  0.13569115     0.03700
C1822       C  0.63127196  0.27687516  0.11428141    -0.10400
H1823       H  0.57767928  0.31874689  0.15966275     0.09300
H1824       H  0.67187367  0.32236033  0.17162447     0.06800
H1825       H  0.63366801  0.25727491  0.09606768     0.06600
C1826       C  0.64786335  0.27225683  0.45552840     0.03700
C1827       C  0.62000980  0.26353967  0.44177668    -0.12500
C1828       C  0.59460022  0.27964388  0.45256952     0.01600
C1829       C  0.59774012  0.30472211  0.47889489    -0.11000
C1830       C  0.62575971  0.31332088  0.49449568     0.03700
C1831       C  0.65000796  0.29633595  0.48223974    -0.10400
H1832       H  0.61844481  0.24574984  0.42011947     0.09300
H1833       H  0.57854535  0.31753162  0.48689119     0.06800
H1834       H  0.67185560  0.30311997  0.49139106     0.06600
O1835       O  0.80705866  0.20459815  0.17472034    -0.78000
C1836       C  0.73357749  0.22661616  0.27400821     0.83100
O1837       O  0.74493042  0.18500662  0.11429798    -0.79100
O1838       O  0.69762646  0.27694083  0.17020151    -0.80600
O1839       O  0.76891439  0.30894257  0.12908491    -0.80400
O1840       O  0.82557448  0.24802328  0.15194851    -0.79000
Zn1841     Zn  0.76708992  0.21331595  0.19757033     1.55700
O1842       O  0.74918255  0.31009863  0.19367469    -0.80400
Cd1843     Cd  0.78738571  0.26745470  0.13142049     1.59700
Cd1844     Cd  0.73159447  0.23004840  0.11084588     1.59600
O1845       O  0.79365838  0.26480939  0.06729998    -0.80400
O1846       O  0.75519043  0.24406704  0.15859569    -1.90900
Cd1847     Cd  0.73458667  0.26831180  0.19644654     1.59900
O1848       O  0.74780920  0.25065082  0.05430117    -0.80300
O1849       O  0.72320213  0.24818818  0.25235316    -0.79000
C1850       C  0.75153495  0.17195565  0.14989240     0.83600
C1851       C  0.82721036  0.21994046  0.15631631     0.83200
O1852       O  0.75547065  0.21212585  0.26040367    -0.77900
C1853       C  0.75156283  0.32046555  0.15562772     0.84000
O1854       O  0.74210575  0.18192915  0.18378343    -0.78000
C1855       C  0.77253289  0.26200434  0.04196539     0.84100
C1856       C  0.68171954  0.26959507  0.14015275     0.84500
O1857       O  0.68858508  0.24834166  0.11634482    -0.80500
O1858       O  0.81722870  0.23808904  0.36955310    -0.78000
C1859       C  0.77563503  0.27207757  0.49734195     0.83100
O1860       O  0.74283228  0.18592865  0.44557551    -0.79100
O1861       O  0.69621065  0.28101924  0.43449521    -0.80600
O1862       O  0.74134870  0.30788076  0.31904438    -0.80400
O1863       O  0.79036407  0.24396632  0.31037119    -0.79000
Zn1864     Zn  0.78947932  0.24170896  0.41979836     1.55700
O1865       O  0.73570960  0.32673874  0.38273383    -0.80400
Cd1866     Cd  0.75278824  0.26519010  0.33767061     1.59700
Cd1867     Cd  0.72348791  0.21821507  0.40512496     1.59600
O1868       O  0.71286635  0.24639306  0.33242805    -0.80400
O1869       O  0.75240660  0.25310538  0.39794910    -1.90900
Cd1870     Cd  0.73855081  0.28864297  0.42203662     1.59900
O1871       O  0.72505813  0.20124076  0.34284649    -0.80300
O1872       O  0.75411132  0.28666119  0.48195682    -0.79000
C1873       C  0.77023904  0.18168592  0.45377061     0.83600
C1874       C  0.81404791  0.23562685  0.32935199     0.83200
O1875       O  0.79683734  0.26288709  0.47420983    -0.77900
C1876       C  0.73354349  0.32880986  0.34222700     0.84000
O1877       O  0.78966519  0.20095212  0.44393569    -0.78000
C1878       C  0.72160456  0.22313406  0.31727888     0.84100
C1879       C  0.67625398  0.26147107  0.43746258     0.84500
O1880       O  0.68127515  0.23487413  0.42707153    -0.80500
C1881       C  0.66310563  0.36801080  0.57095551     0.87000
C1882       C  0.65617706  0.33947798  0.54873198    -0.53200
C1883       C  0.63200456  0.33981391  0.02229047     0.09900
C1884       C  0.61539628  0.37018588  0.02280447     0.20900
C1885       C  0.66416669  0.39157761  0.53446055    -0.53900
C1886       C  0.63905619  0.39486189  0.01064994     0.10100
C1887       C  0.63370126  0.37474177  0.59450051    -0.53500
C1888       C  0.60832902  0.37505840  0.57048071     0.10600
H1889       H  0.66963778  0.32018452  0.05373145     0.15100
H1890       H  0.59554407  0.37087903  0.00247474     0.00900
H1891       H  0.68275893  0.40650585  0.03082531     0.15400
H1892       H  0.63330258  0.37813747  0.62783463     0.15200
C1893       C  0.64945640  0.37884800  0.75621456     0.87000
C1894       C  0.64656412  0.35133361  0.73028957    -0.53200
C1895       C  0.62450775  0.35101212  0.70074712     0.09900
C1896       C  0.60530861  0.38006037  0.70252264     0.20900
C1897       C  0.65081944  0.40448345  0.72243215    -0.53900
C1898       C  0.62751594  0.40686789  0.69552400     0.10100
C1899       C  0.61871550  0.38168696  0.77757494    -0.53500
C1900       C  0.59530517  0.38205352  0.74995269     0.10600
H1901       H  0.66150895  0.33314299  0.73480766     0.15100
H1902       H  0.58658529  0.38023899  0.68068505     0.00900
H1903       H  0.66867967  0.42052106  0.72082529     0.15400
H1904       H  0.61570706  0.38274333  0.81174656     0.15200
C1905       C  0.90740656  0.11787735  0.00578857     0.87000
C1906       C  0.90355812  0.14378333  0.53460917    -0.53200
C1907       C  0.88002306  0.14302649  0.56271949     0.09900
C1908       C  0.86093398  0.11416474  0.55750560     0.20900
C1909       C  0.90727454  0.09076494  0.53718913    -0.53900
C1910       C  0.88330665  0.08738005  0.56386225     0.10100
C1911       C  0.87730636  0.11648270  0.98275887    -0.53500
C1912       C  0.85255676  0.11502508  0.00901503     0.10600
H1913       H  0.91869639  0.16218337  0.53178622     0.15100
H1914       H  0.84136479  0.11272592  0.57890880     0.00900
H1915       H  0.92506590  0.07502324  0.53835081     0.15400
H1916       H  0.87570727  0.11832002  0.94836769     0.15200
C1917       C  0.90456674  0.13030492  0.69466565     0.87000
C1918       C  0.89910650  0.15905250  0.71740479    -0.53200
C1919       C  0.87503059  0.15930988  0.74465149     0.09900
C1920       C  0.85715545  0.12934931  0.74490133     0.20900
C1921       C  0.90524683  0.10682216  0.73082146    -0.53900
C1922       C  0.88060469  0.10446177  0.75631583     0.10100
C1923       C  0.87476784  0.12385885  0.67246493    -0.53500
C1924       C  0.84938427  0.12466107  0.69722717     0.10600
H1925       H  0.91356972  0.17797289  0.71300617     0.15100
H1926       H  0.83749919  0.12889561  0.76635235     0.00900
H1927       H  0.92323058  0.09123763  0.73327260     0.15400
H1928       H  0.87400614  0.11851068  0.63962923     0.15200
C1929       C  0.53146429  0.34849356  0.61185709     0.03700
C1930       C  0.52162733  0.37155389  0.63479486    -0.12500
C1931       C  0.53784560  0.39745450  0.63422821     0.01200
C1932       C  0.56546993  0.39989275  0.61139055    -0.11000
C1933       C  0.57709048  0.37584997  0.58975806     0.03700
C1934       C  0.55888642  0.35091105  0.58863288    -0.10400
H1935       H  0.00099311  0.36948960  0.65261729     0.09300
H1936       H  0.57769132  0.42027601  0.61011257     0.06800
H1937       H  0.56723074  0.33251703  0.57149030     0.06600
C1938       C  0.52020661  0.35582885  0.79475553     0.03700
C1939       C  0.54796564  0.35623695  0.77368876    -0.12500
C1940       C  0.56352970  0.38295483  0.76541335     0.01200
C1941       C  0.55049960  0.40942402  0.77901297    -0.11000
C1942       C  0.52241594  0.40898244  0.79990013     0.03700
C1943       C  0.50746572  0.38222419  0.80612124    -0.10400
H1944       H  0.55861985  0.33562997  0.76719733     0.09300
H1945       H  0.56303608  0.42977331  0.77614017     0.06800
H1946       H  0.98697934  0.38152399  0.82448282     0.06600
C1947       C  0.90501002  0.20897706  0.62680149     0.03700
C1948       C  0.90373535  0.18256583  0.60482019    -0.12500
C1949       C  0.87737482  0.16812715  0.59459029     0.01200
C1950       C  0.85129341  0.17961186  0.61334637    -0.11000
C1951       C  0.85307599  0.20501153  0.63934051     0.03700
C1952       C  0.87984460  0.21940239  0.64506941    -0.10400
H1953       H  0.92425631  0.17344967  0.59433765     0.09300
H1954       H  0.83004450  0.16989876  0.60670262     0.06800
H1955       H  0.88089262  0.23942490  0.66250335     0.06600
C1956       C  0.89372462  0.22714187  0.80893267     0.03700
C1957       C  0.89570746  0.20056022  0.78772048    -0.12500
C1958       C  0.87024101  0.18606191  0.77232001     0.01200
C1959       C  0.84206824  0.19812982  0.78324194    -0.11000
C1960       C  0.84041643  0.22492241  0.80576793     0.03700
C1961       C  0.86644078  0.23958035  0.81558466    -0.10400
H1962       H  0.91737651  0.19103941  0.78358820     0.09300
H1963       H  0.82197458  0.18670003  0.77523668     0.06800
H1964       H  0.86535897  0.25956708  0.83318989     0.06600
C1965       C  0.72896925  0.39755131  0.63781354     0.03700
C1966       C  0.70426601  0.39522017  0.61085811    -0.12500
C1967       C  0.69198608  0.36812650  0.59965600     0.01200
C1968       C  0.70886462  0.34299638  0.61321010    -0.11000
C1969       C  0.73333848  0.34554738  0.64151542     0.03700
C1970       C  0.74201175  0.37267867  0.65497980    -0.10400
H1971       H  0.69569584  0.41475998  0.59601860     0.09300
H1972       H  0.70322361  0.32148555  0.60280326     0.06800
H1973       H  0.76136944  0.37459575  0.67475738     0.06600
C1974       C  0.71962589  0.35534273  0.82233588     0.03700
C1975       C  0.73122183  0.38296534  0.83044245    -0.12500
C1976       C  0.71573868  0.40835859  0.81852700     0.01200
C1977       C  0.68815481  0.40606264  0.79852433    -0.11000
C1978       C  0.67675810  0.37891779  0.78621715     0.03700
C1979       C  0.69273399  0.35329261  0.79963885    -0.10400
H1980       H  0.75159581  0.38459926  0.84798932     0.09300
H1981       H  0.67584444  0.42591092  0.79121618     0.06800
H1982       H  0.68394471  0.33162944  0.79459595     0.06600
C1983       C  0.85051792  0.02067447  0.63144732     0.03700
C1984       C  0.87444165  0.01068481  0.65433507    -0.12500
C1985       C  0.90221889  0.02081806  0.64290319     0.01200
C1986       C  0.90559942  0.04508150  0.61278966    -0.11000
C1987       C  0.88067160  0.05987723  0.59466483     0.03700
C1988       C  0.85366371  0.04491430  0.60119857    -0.10400
H1989       H  0.87200222  0.49189125  0.67641996     0.09300
H1990       H  0.92761782  0.05188700  0.60323816     0.06800
H1991       H  0.83620816  0.05109184  0.58004410     0.06600
C1992       C  0.84523386  0.03541772  0.81269989     0.03700
C1993       C  0.86991542  0.02083100  0.82904576    -0.12500
C1994       C  0.89785700  0.03339926  0.82407350     0.01200
C1995       C  0.90119315  0.06120657  0.80235155    -0.11000
C1996       C  0.87656786  0.07662698  0.78476281     0.03700
C1997       C  0.84870052  0.06315636  0.79036532    -0.10400
H1998       H  0.86733530  0.50010396  0.84707280     0.09300
H1999       H  0.92311987  0.07080325  0.79963136     0.06800
H2000       H  0.82960788  0.07424857  0.77707759     0.06600
C2001       C  0.96762150  0.09726832  0.62634169     0.03700
C2002       C  0.98432198  0.12093241  0.61189002    -0.12500
C2003       C  0.97893575  0.14792988  0.62831743     0.01200
C2004       C  0.95424265  0.15199027  0.65650437    -0.11000
C2005       C  0.93319692  0.12884945  0.66536709     0.03700
C2006       C  0.94103307  0.10150145  0.64974756    -0.10400
H2007       H  0.50423770  0.11763706  0.59313683     0.09300
H2008       H  0.95139991  0.17323709  0.66978777     0.06800
H2009       H  0.92812097  0.08265541  0.66071049     0.06600
C2010       C  0.98040528  0.09848854  0.94355812     0.03700
C2011       C  0.99211117  0.12644220  0.93166014    -0.12500
C2012       C  0.97600280  0.15195131  0.94072821     0.01200
C2013       C  0.94789505  0.14867696  0.96203878    -0.11000
C2014       C  0.93626285  0.12111556  0.97694184     0.03700
C2015       C  0.95299685  0.09651529  0.96653356    -0.10400
H2016       H  0.51262960  0.12824998  0.91364002     0.09300
H2017       H  0.93464261  0.16796362  0.96654476     0.06800
H2018       H  0.94388281  0.07508257  0.97504890     0.06600
O2019       O  0.93870774  0.00643733  0.69324692    -0.78000
C2020       C  0.02326812  0.51557324  0.76439959     0.83100
O2021       O  0.50160435  0.06045673  0.60261204    -0.79100
O2022       O  0.56669612  0.50811202  0.66537399    -0.80600
O2023       O  0.99618860  0.42502623  0.65652723    -0.80400
O2024       O  0.93682378  0.48312117  0.63285809    -0.79000
Zn2025     Zn  0.98054008  0.01736125  0.68994522     1.55700
O2026       O  0.54155881  0.44175695  0.66843928    -0.80400
Cd2027     Cd  0.97778319  0.46318027  0.63181259     1.59700
Cd2028     Cd  0.51671068  0.01700559  0.60013141     1.59600
O2029       O  0.98017473  0.45574876  0.56784190    -0.80400
O2030       O  0.00208314  0.99535528  0.65257198    -1.90900
Cd2031     Cd  0.53481114  0.48269625  0.68885203     1.59900
O2032       O  0.49530680  0.00071581  0.54806162    -0.80300
O2033       O  0.53829921  0.49431160  0.75111201    -0.79000
C2034       C  0.98205811  0.06877934  0.62929842     0.83600
C2035       C  0.92711096  0.00250796  0.65732016     0.83200
O2036       O  0.00134608  0.02561977  0.74356600    -0.77900
C2037       C  0.52440343  0.42235046  0.65505222     0.84000
O2038       O  0.97485048  0.05341513  0.66179328    -0.78000
C2039       C  0.48390619  0.97597912  0.53958590     0.84100
C2040       C  0.57573815  0.49816046  0.63117161     0.84500
O2041       O  0.56147927  0.00368746  0.59698663    -0.80500
O2042       O  0.92672956  0.01725564  0.88339724    -0.78000
C2043       C  0.97584302  0.47197895  0.99541182     0.83100
O2044       O  0.51953029  0.06578336  0.91602716    -0.79100
O2045       O  0.55149085  0.45438687  0.93566453    -0.80600
O2046       O  0.00531112  0.45869318  0.80757891    -0.80400
O2047       O  0.94294634  0.50750124  0.81859462    -0.79000
Zn2048     Zn  0.96379480  0.01010607  0.91896757     1.55700
O2049       O  0.50812058  0.42836288  0.86563077    -0.80400
Cd2050     Cd  0.98532126  0.49595751  0.83466077     1.59700
Cd2051     Cd  0.53447704  0.02304673  0.89483711     1.59600
O2052       O  0.00411719  0.53564876  0.82376096    -0.80400
O2053       O  0.99793315  0.99579672  0.89357933    -1.90900
Cd2054     Cd  0.50832935  0.45659541  0.91616344     1.59900
O2055       O  0.54935656  0.02250141  0.83025930    -0.80300
O2056       O  0.48693936  0.45085047  0.97503542    -0.79000
C2057       C  0.99275277  0.07020540  0.92851973     0.83600
C2058       C  0.92354751  0.01811152  0.84310058     0.83200
O2059       O  0.96255169  0.99343487  0.97725755    -0.77900
C2060       C  0.51150550  0.43362888  0.82540819     0.84000
O2061       O  0.97403778  0.04963270  0.92868793    -0.78000
C2062       C  0.52720368  0.02703470  0.80664889     0.84100
C2063       C  0.57143015  0.47350480  0.94142457     0.84500
O2064       O  0.56746998  0.00091661  0.93131712    -0.80500
C2065       C  0.60043296  0.47739936  0.63290411     0.03700
C2066       C  0.60227253  0.45384675  0.66448666    -0.12500
C2067       C  0.62564673  0.43354156  0.66412778     0.01200
C2068       C  0.65056650  0.44285647  0.63983694    -0.11000
C2069       C  0.65003285  0.46812739  0.61177599     0.03700
C2070       C  0.62406864  0.48337087  0.60566496    -0.10400
H2071       H  0.58696709  0.45214930  0.69088526     0.09300
H2072       H  0.67125393  0.43258119  0.64711955     0.06800
H2073       H  0.62366674  0.00243503  0.58381746     0.06600
C2074       C  0.60077697  0.46309447  0.95695476     0.03700
C2075       C  0.60511960  0.43463059  0.97650782    -0.12500
C2076       C  0.63396286  0.42387394  0.98512089     0.01200
C2077       C  0.65829645  0.44236207  0.97170637    -0.11000
C2078       C  0.65402626  0.47074817  0.95292256     0.03700
C2079       C  0.62534588  0.48087475  0.94690715    -0.10400
H2080       H  0.58605023  0.42112067  0.98517653     0.09300
H2081       H  0.68072786  0.43451182  0.97401858     0.06800
H2082       H  0.62226900  0.00226611  0.93107090     0.06600
O2083       O  0.69798363  0.46527442  0.58562760    -0.78000
C2084       C  0.77174752  0.98674813  0.49782525     0.83100
O2085       O  0.74903265  0.43961631  0.67125211    -0.79100
O2086       O  0.81594458  0.99090319  0.59971135    -0.80600
O2087       O  0.74261760  0.06949990  0.60834848    -0.80400
O2088       O  0.68194015  0.00971355  0.60366199    -0.79000
Zn2089     Zn  0.74016314  0.46849462  0.57751168     1.55700
O2090       O  0.78863704  0.05386808  0.59941764    -0.80400
Cd2091     Cd  0.72089088  0.02943482  0.62470434     1.59700
Cd2092     Cd  0.76482806  0.48332888  0.66926211     1.59600
O2093       O  0.71229525  0.03587393  0.68932564    -0.80400
O2094       O  0.75004178  0.49895842  0.61359716    -1.90900
Cd2095     Cd  0.78226976  0.01384207  0.57953579     1.59900
O2096       O  0.74458980  0.50479606  0.71888866    -0.80300
O2097       O  0.78200752  0.00861117  0.51664067    -0.79000
C2098       C  0.74597907  0.42486611  0.63792839     0.83600
C2099       C  0.67778148  0.48219591  0.59776714     0.83200
O2100       O  0.75444921  0.46834283  0.51669170    -0.77900
C2101       C  0.77082457  0.07331892  0.60986488     0.84000
O2102       O  0.75717041  0.43376126  0.60285093    -0.78000
C2103       C  0.72482923  0.52449864  0.72199898     0.84100
C2104       C  0.82433865  0.00172997  0.63359932     0.84500
O2105       O  0.80926598  0.49764233  0.66800732    -0.80500
O2106       O  0.67407521  0.49848495  0.89393918    -0.78000
C2107       C  0.71727783  0.03342414  0.76525523     0.83100
O2108       O  0.75407221  0.44234055  0.83606225    -0.79100
O2109       O  0.79514384  0.04318188  0.82102254    -0.80600
O2110       O  0.74347565  0.06103322  0.94774580    -0.80400
O2111       O  0.70324015  0.99203782  0.95042197    -0.79000
Zn2112     Zn  0.70482594  0.49893326  0.84691490     1.55700
O2113       O  0.76526102  0.07881333  0.88816200    -0.80400
Cd2114     Cd  0.73742470  0.02016562  0.92563633     1.59700
Cd2115     Cd  0.77145224  0.47838006  0.86636281     1.59600
O2116       O  0.77995725  0.01002068  0.93349040    -0.80400
O2117       O  0.74107470  0.51131097  0.86661575    -1.90900
Cd2118     Cd  0.75393014  0.04864029  0.84099917     1.59900
O2119       O  0.77501849  0.46338300  0.93068974    -0.80300
O2120       O  0.73362007  0.05282056  0.78198205    -0.79000
C2121       C  0.72656914  0.43739666  0.83045078     0.83600
C2122       C  0.67849046  0.48810503  0.93185722     0.83200
O2123       O  0.69995848  0.51633093  0.78742150    -0.77900
C2124       C  0.76127994  0.07898480  0.92861621     0.84000
O2125       O  0.70730142  0.45702201  0.83563713    -0.78000
C2126       C  0.77778508  0.48577156  0.95272418     0.84100
C2127       C  0.81543856  0.02439112  0.82467071     0.84500
O2128       O  0.81090170  0.49835741  0.84119967    -0.80500
C2129       C  0.77220401  0.14696231  0.65257894     0.03700
C2130       C  0.79645869  0.14442816  0.68173176    -0.12500
C2131       C  0.81821469  0.12234169  0.67767366     0.01200
C2132       C  0.81048004  0.09915897  0.65123651    -0.11000
C2133       C  0.78359754  0.09971584  0.62769385     0.03700
C2134       C  0.76666448  0.12469844  0.62564181    -0.10400
H2135       H  0.79907607  0.15971770  0.70662102     0.09300
H2136       H  0.82459139  0.08018017  0.65088076     0.06800
H2137       H  0.74733565  0.12573501  0.60552680     0.06600
C2138       C  0.77717080  0.10096763  0.95351379     0.03700
C2139       C  0.76475973  0.12857317  0.95414028    -0.12500
C2140       C  0.78049930  0.15229232  0.96900326     0.01200
C2141       C  0.80852506  0.14751067  0.98828446    -0.11000
C2142       C  0.82123302  0.11905629  0.99146209     0.03700
C2143       C  0.80536269  0.09587914  0.97250832    -0.10400
H2144       H  0.74382499  0.13214114  0.93831837     0.09300
H2145       H  0.82108963  0.16612106  0.99883137     0.06800
H2146       H  0.81517201  0.07428677  0.97151364     0.06600
O2147       O  0.56983587  0.26926490  0.57301713    -0.78000
C2148       C  0.48218981  0.26526532  0.49860487     0.83100
O2149       O  0.99499306  0.31270747  0.64115700    -0.79100
O2150       O  0.95101269  0.21629479  0.59913475    -0.80600
O2151       O  0.51584928  0.18205865  0.64563254    -0.80400
O2152       O  0.57158011  0.24930735  0.63906720    -0.79000
Zn2153     Zn  0.52685839  0.26746063  0.56672575     1.55700
O2154       O  0.00229075  0.18073006  0.57810162    -0.80400
Cd2155     Cd  0.53537341  0.22300320  0.64725311     1.59700
Cd2156     Cd  0.98200032  0.26744511  0.65218264     1.59600
O2157       O  0.53373104  0.22562533  0.71231210    -0.80400
O2158       O  0.50763180  0.24626149  0.61197993    -1.90900
Cd2159     Cd  0.98820282  0.22218601  0.57168447     1.59900
O2160       O  0.99456329  0.25461440  0.71445799    -0.80300
O2161       O  0.97325992  0.24092893  0.51523628    -0.79000
C2162       C  0.51507591  0.32055775  0.61354211     0.83600
C2163       C  0.57988887  0.26848042  0.61077682     0.83200
O2164       O  0.50532453  0.27747976  0.51217613    -0.77900
C2165       C  0.00044237  0.17110589  0.61663963     0.84000
O2166       O  0.52463395  0.30326041  0.58737901    -0.78000
C2167       C  0.01435992  0.23891922  0.73316422     0.84100
C2168       C  0.93278967  0.22605850  0.62503953     0.84500
O2169       O  0.93833381  0.24908247  0.64605163    -0.80500
O2170       O  0.94273549  0.26748301  0.94918387    -0.78000
C2171       C  0.91920547  0.24007415  0.83037816     0.83100
O2172       O  0.50810342  0.18778425  0.90017237    -0.79100
O2173       O  0.98604290  0.23555704  0.79387173    -0.80600
O2174       O  0.51208019  0.32774234  0.85778978    -0.80400
O2175       O  0.47334073  0.30480331  0.94880416    -0.79000
Zn2176     Zn  0.95841891  0.23954090  0.90754242     1.55700
O2177       O  0.99545096  0.30881875  0.79815660    -0.80400
Cd2178     Cd  0.50549731  0.29596493  0.90547887     1.59700
Cd2179     Cd  0.52567332  0.23031430  0.87460265     1.59600
O2180       O  0.54511482  0.29126522  0.93527120    -0.80400
O2181       O  0.99222109  0.25867414  0.88097414    -1.90900
Cd2182     Cd  0.97515574  0.27052609  0.82533423     1.59900
O2183       O  0.56207334  0.24910223  0.91047899    -0.80300
O2184       O  0.93028353  0.26466753  0.81714908    -0.79000
C2185       C  0.98582475  0.18240369  0.92561977     0.83600
C2186       C  0.96424625  0.28062053  0.96588862     0.83200
O2187       O  0.92899077  0.22679583  0.86360246    -0.77900
C2188       C  0.50879178  0.32905363  0.81757330     0.84000
O2189       O  0.96942064  0.20305596  0.93750732    -0.78000
C2190       C  0.56560458  0.27249585  0.93211974     0.84100
C2191       C  0.51194675  0.23473356  0.77974499     0.84500
O2192       O  0.53357585  0.23208026  0.80578512    -0.80500
C2193       C  0.60364226  0.28816072  0.62225817     0.03700
C2194       C  0.59967311  0.31212802  0.65047256    -0.12500
C2195       C  0.62458876  0.32596056  0.66855303     0.01200
C2196       C  0.65204599  0.31309962  0.65897375    -0.11000
C2197       C  0.65490060  0.28729777  0.63569128     0.03700
C2198       C  0.63127190  0.27687520  0.61428144    -0.10400
H2199       H  0.57767920  0.31874694  0.65966280     0.09300
H2200       H  0.67187358  0.32236038  0.67162461     0.06800
H2201       H  0.63366795  0.25727498  0.59606772     0.06600
C2202       C  0.64786339  0.27225681  0.95552845     0.03700
C2203       C  0.62000984  0.26353967  0.94177669    -0.12500
C2204       C  0.59460028  0.27964391  0.95256955     0.01600
C2205       C  0.59774021  0.30472213  0.97889491    -0.11000
C2206       C  0.62575979  0.31332089  0.99449569     0.03700
C2207       C  0.65000800  0.29633593  0.98223978    -0.10400
H2208       H  0.61844484  0.24574985  0.92011953     0.09300
H2209       H  0.57854545  0.31753166  0.98689121     0.06800
H2210       H  0.67185565  0.30311995  0.99139109     0.06600
O2211       O  0.80705868  0.20459815  0.67472041    -0.78000
C2212       C  0.73357749  0.22661612  0.77400825     0.83100
O2213       O  0.74493035  0.18500660  0.61429800    -0.79100
O2214       O  0.69762642  0.27694089  0.67020160    -0.80600
O2215       O  0.76891437  0.30894251  0.62908482    -0.80400
O2216       O  0.82557446  0.24802327  0.65194845    -0.79000
Zn2217     Zn  0.76708993  0.21331594  0.69757037     1.55700
O2218       O  0.74918260  0.31009860  0.69367464    -0.80400
Cd2219     Cd  0.78738567  0.26745465  0.63142046     1.59700
Cd2220     Cd  0.73159438  0.23004838  0.61084591     1.59600
O2221       O  0.79365831  0.26480932  0.56729997    -0.80400
O2222       O  0.75519038  0.24406700  0.65859569    -1.90900
Cd2223     Cd  0.73458665  0.26831179  0.69644654     1.59900
O2224       O  0.74780912  0.25065077  0.55430117    -0.80300
O2225       O  0.72320216  0.24818817  0.75235321    -0.79000
C2226       C  0.75153497  0.17195565  0.64989240     0.83600
C2227       C  0.82721035  0.21994046  0.65631631     0.83200
O2228       O  0.75547063  0.21212579  0.76040371    -0.77900
C2229       C  0.75156283  0.32046549  0.65562764     0.84000
O2230       O  0.74210579  0.18192914  0.68378345    -0.78000
C2231       C  0.77253281  0.26200427  0.54196538     0.84100
C2232       C  0.68171947  0.26959511  0.64015287     0.84500
O2233       O  0.68858499  0.24834171  0.61634494    -0.80500
O2234       O  0.81722871  0.23808909  0.86955307    -0.78000
C2235       C  0.77563510  0.27207763  0.99734195     0.83100
O2236       O  0.74283229  0.18592869  0.94557555    -0.79100
O2237       O  0.69621071  0.28101919  0.93449530    -0.80600
O2238       O  0.74134865  0.30788071  0.81904436    -0.80400
O2239       O  0.79036406  0.24396629  0.81037118    -0.79000
Zn2240     Zn  0.78947934  0.24170901  0.91979835     1.55700
O2241       O  0.73570952  0.32673868  0.88273380    -0.80400
Cd2242     Cd  0.75278822  0.26519005  0.83767059     1.59700
Cd2243     Cd  0.72348791  0.21821506  0.90512497     1.59600
O2244       O  0.71286634  0.24639300  0.83242807    -0.80400
O2245       O  0.75240659  0.25310537  0.89794910    -1.90900
Cd2246     Cd  0.73855084  0.28864296  0.92203664     1.59900
O2247       O  0.72505808  0.20124070  0.84284652    -0.80300
O2248       O  0.75411137  0.28666125  0.98195682    -0.79000
C2249       C  0.77023906  0.18168598  0.95377063     0.83600
C2250       C  0.81404792  0.23562687  0.82935198     0.83200
O2251       O  0.79683738  0.26288713  0.97420982    -0.77900
C2252       C  0.73354341  0.32880980  0.84222698     0.84000
O2253       O  0.78966520  0.20095218  0.94393569    -0.78000
C2254       C  0.72160454  0.22313400  0.81727890     0.84100
C2255       C  0.67625402  0.26147104  0.93746265     0.84500
O2256       O  0.68127515  0.23487410  0.92707158    -0.80500
C2257       C  0.66313074  0.86804834  0.07099023     0.87000
C2258       C  0.65622188  0.83952627  0.04873529    -0.53200
C2259       C  0.63205159  0.83986454  0.52229348     0.09900
C2260       C  0.61542725  0.87022661  0.52282899     0.20900
C2261       C  0.66418426  0.89163552  0.03451561    -0.53900
C2262       C  0.63907476  0.89491666  0.51070121     0.10100
C2263       C  0.63372156  0.87475402  0.09453477    -0.53500
C2264       C  0.60835425  0.87507769  0.07050669     0.10600
H2265       H  0.66969599  0.82023801  0.55370567     0.15100
H2266       H  0.59557665  0.87091900  0.50249576     0.00900
H2267       H  0.68277011  0.90657162  0.53088334     0.15400
H2268       H  0.63331699  0.87813000  0.12787457     0.15200
C2269       C  0.64943354  0.87882637  0.25623163     0.87000
C2270       C  0.64653325  0.85131011  0.23031424    -0.53200
C2271       C  0.62448187  0.85099339  0.20076560     0.09900
C2272       C  0.60528376  0.88004577  0.20254585     0.20900
C2273       C  0.65079952  0.90446040  0.22244649    -0.53900
C2274       C  0.62749612  0.90685268  0.19554251     0.10100
C2275       C  0.61869431  0.88167160  0.27759793    -0.53500
C2276       C  0.59527962  0.88203959  0.24998196     0.10600
H2277       H  0.66147021  0.83311438  0.23483869     0.15100
H2278       H  0.58655962  0.88022361  0.18071247     0.00900
H2279       H  0.66866470  0.92049276  0.22083547     0.15400
H2280       H  0.61569021  0.88273053  0.31176991     0.15200
C2281       C  0.90742751  0.61793163  0.50572363     0.87000
C2282       C  0.90356624  0.64384141  0.03453648    -0.53200
C2283       C  0.88003358  0.64307431  0.06265158     0.09900
C2284       C  0.86095420  0.61420766  0.05744554     0.20900
C2285       C  0.90730435  0.59082164  0.03713756    -0.53900
C2286       C  0.88333232  0.58743158  0.06381181     0.10100
C2287       C  0.87732810  0.61651883  0.48269759    -0.53500
C2288       C  0.85257940  0.61505680  0.50895504     0.10600
H2289       H  0.91869666  0.66224746  0.03172443     0.15100
H2290       H  0.84138527  0.61276608  0.07885175     0.00900
H2291       H  0.92510238  0.57508502  0.03828941     0.15400
H2292       H  0.87572766  0.61835415  0.44830639     0.15200
C2293       C  0.90458281  0.63032302  0.19468479     0.87000
C2294       C  0.89913649  0.65904254  0.21750353    -0.53200
C2295       C  0.87506085  0.65926991  0.24475217     0.09900
C2296       C  0.85717094  0.62932315  0.24492080     0.20900
C2297       C  0.90525164  0.60679737  0.23078800    -0.53900
C2298       C  0.88061030  0.60441989  0.25628193     0.10100
C2299       C  0.87478325  0.62391510  0.17246352    -0.53500
C2300       C  0.84940006  0.62469218  0.19722953     0.10600
H2301       H  0.91361855  0.67795665  0.21318627     0.15100
H2302       H  0.83751419  0.62885389  0.26637125     0.00900
H2303       H  0.92323493  0.59121190  0.23321565     0.15400
H2304       H  0.87402076  0.61859951  0.13961353     0.15200
C2305       C  0.53147576  0.84852683  0.11182053     0.03700
C2306       C  0.52164934  0.87157547  0.13479045    -0.12500
C2307       C  0.53787796  0.89746792  0.13425775     0.01200
C2308       C  0.56550046  0.89990865  0.11141853    -0.11000
C2309       C  0.57711489  0.87587148  0.08976995     0.03700
C2310       C  0.55890242  0.85094202  0.08861053    -0.10400
H2311       H  0.00101492  0.86950828  0.15261199     0.09300
H2312       H  0.57772642  0.92028810  0.11015354     0.06800
H2313       H  0.56724258  0.83255327  0.07145217     0.06600
C2314       C  0.52018463  0.85583858  0.29488260     0.03700
C2315       C  0.54794964  0.85623058  0.27382521    -0.12500
C2316       C  0.56350231  0.88294639  0.26545934     0.01200
C2317       C  0.55046369  0.90942790  0.27900138    -0.11000
C2318       C  0.52238286  0.90899907  0.29990142     0.03700
C2319       C  0.50743455  0.88224320  0.30617516    -0.10400
H2320       H  0.55861123  0.83561733  0.26739280     0.09300
H2321       H  0.56299462  0.92977898  0.27608348     0.06800
H2322       H  0.98694984  0.88155609  0.32454135     0.06600
C2323       C  0.90501876  0.70900888  0.12674947     0.03700
C2324       C  0.90374626  0.68259360  0.10477954    -0.12500
C2325       C  0.87738398  0.66816625  0.09453231     0.01200
C2326       C  0.85130146  0.67965287  0.11328298    -0.11000
C2327       C  0.85308547  0.70504975  0.13928190     0.03700
C2328       C  0.87985417  0.71943758  0.14501264    -0.10400
H2329       H  0.92426794  0.67346847  0.09431033     0.09300
H2330       H  0.83005198  0.66994276  0.10663398     0.06800
H2331       H  0.88090361  0.73946063  0.16244535     0.06600
C2332       C  0.89384112  0.72690357  0.30937486     0.03700
C2333       C  0.89578375  0.70033222  0.28812743    -0.12500
C2334       C  0.87030312  0.68596130  0.27253708     0.01200
C2335       C  0.84214739  0.69811912  0.28333288    -0.11000
C2336       C  0.84053542  0.72489340  0.30590273     0.03700
C2337       C  0.86658823  0.73944775  0.31586684    -0.10400
H2338       H  0.91742808  0.69074584  0.28404548     0.09300
H2339       H  0.82203504  0.68677566  0.27518467     0.06800
H2340       H  0.86553578  0.75944073  0.33346144     0.06600
C2341       C  0.72898000  0.89757267  0.13786613     0.03700
C2342       C  0.70428989  0.89524193  0.11089512    -0.12500
C2343       C  0.69200013  0.86815379  0.09970806     0.01200
C2344       C  0.70885874  0.84301999  0.11329866    -0.11000
C2345       C  0.73332075  0.84557063  0.14162575     0.03700
C2346       C  0.74200241  0.87270314  0.15507330    -0.10400
H2347       H  0.69573659  0.91477835  0.09603699     0.09300
H2348       H  0.70321538  0.82150947  0.10289400     0.06800
H2349       H  0.76135469  0.87462067  0.17486163     0.06600
C2350       C  0.71967092  0.85535771  0.32223039     0.03700
C2351       C  0.73124962  0.88298819  0.33032311    -0.12500
C2352       C  0.71572911  0.90836891  0.31846342     0.01200
C2353       C  0.68812325  0.90605204  0.29852965    -0.11000
C2354       C  0.67674430  0.87890152  0.28621671     0.03700
C2355       C  0.69275872  0.85328720  0.29958604    -0.10400
H2356       H  0.75164067  0.88463607  0.34782664     0.09300
H2357       H  0.67578577  0.92588937  0.29125941     0.06800
H2358       H  0.68398563  0.83161704  0.29454956     0.06600
C2359       C  0.85050775  0.52077890  0.13149769     0.03700
C2360       C  0.87442973  0.51080117  0.15439826    -0.12500
C2361       C  0.90221282  0.52089092  0.14291097     0.01200
C2362       C  0.90560731  0.54512987  0.11275643    -0.11000
C2363       C  0.88068654  0.55993623  0.09463231     0.03700
C2364       C  0.85366651  0.54499592  0.10120542    -0.10400
H2365       H  0.87202111  0.99175527  0.17632201     0.09300
H2366       H  0.92762921  0.55191329  0.10318313     0.06800
H2367       H  0.83621088  0.55117303  0.08005008     0.06600
C2368       C  0.84522333  0.53543258  0.31279690     0.03700
C2369       C  0.86990564  0.52082741  0.32910691    -0.12500
C2370       C  0.89785981  0.53335241  0.32403278     0.01200
C2371       C  0.90120619  0.56114118  0.30226413    -0.11000
C2372       C  0.87657753  0.57658875  0.28473661     0.03700
C2373       C  0.84869785  0.56315908  0.29043368    -0.10400
H2374       H  0.86735049  0.00009383  0.34697823     0.09300
H2375       H  0.92314291  0.57070845  0.29948353     0.06800
H2376       H  0.82960288  0.57426907  0.27718522     0.06600
C2377       C  0.96766006  0.59730549  0.12640067     0.03700
C2378       C  0.98438103  0.62096656  0.11199291    -0.12500
C2379       C  0.97896796  0.64797056  0.12838320     0.01200
C2380       C  0.95425396  0.65203246  0.15653417    -0.11000
C2381       C  0.93321363  0.62888499  0.16538631     0.03700
C2382       C  0.94105368  0.60154128  0.14975639    -0.10400
H2383       H  0.50431473  0.61766863  0.09328021     0.09300
H2384       H  0.95138979  0.67328324  0.16979800     0.06800
H2385       H  0.92812737  0.58269517  0.16067702     0.06600
C2386       C  0.98037955  0.59849632  0.44341463     0.03700
C2387       C  0.99214269  0.62643962  0.43159471    -0.12500
C2388       C  0.97609401  0.65196819  0.44074613     0.01200
C2389       C  0.94798128  0.64872653  0.46205064    -0.11000
C2390       C  0.93628244  0.62116662  0.47686302     0.03700
C2391       C  0.95295562  0.59654698  0.46635995    -0.10400
H2392       H  0.51267669  0.62823065  0.41360937     0.09300
H2393       H  0.93477970  0.66804111  0.46660027     0.06800
H2394       H  0.94379363  0.57512472  0.47482624     0.06600
O2395       O  0.93867544  0.50644580  0.19325928    -0.78000
C2396       C  0.02327936  0.01559186  0.26440828     0.83100
O2397       O  0.50162623  0.56048074  0.10267726    -0.79100
O2398       O  0.56672819  0.00812960  0.16537065    -0.80600
O2399       O  0.99623112  0.92502814  0.15661333    -0.80400
O2400       O  0.93685975  0.98307206  0.13287983    -0.79000
Zn2401     Zn  0.98050774  0.51736576  0.18996035     1.55700
O2402       O  0.54160415  0.94176328  0.16848383    -0.80400
Cd2403     Cd  0.97783084  0.96315972  0.13183082     1.59700
Cd2404     Cd  0.51668371  0.51701762  0.10015307     1.59600
O2405       O  0.98020999  0.95570152  0.06786369    -0.80400
O2406       O  0.00204208  0.49536078  0.15257674    -1.90900
Cd2407     Cd  0.53485240  0.98270907  0.18886909     1.59900
O2408       O  0.49527043  0.50076760  0.04806394    -0.80300
O2409       O  0.53831946  0.99433264  0.25113230    -0.79000
C2410       C  0.98207350  0.56880572  0.12935130     0.83600
C2411       C  0.92708651  0.50255185  0.15731700     0.83200
O2412       O  0.00132792  0.52560449  0.24357560    -0.77900
C2413       C  0.52444503  0.92235529  0.15511147     0.84000
O2414       O  0.97483747  0.55343270  0.16182618    -0.78000
C2415       C  0.48387890  0.47602989  0.03957248     0.84100
C2416       C  0.57576974  0.99817450  0.13116956     0.84500
O2417       O  0.56144170  0.50366800  0.09699328    -0.80500
O2418       O  0.92671760  0.51717179  0.38334645    -0.78000
C2419       C  0.97583975  0.97193275  0.49543458     0.83100
O2420       O  0.51951130  0.56576697  0.41596116    -0.79100
O2421       O  0.55149411  0.95440944  0.43569039    -0.80600
O2422       O  0.00527835  0.95871259  0.30758152    -0.80400
O2423       O  0.94291904  0.00750727  0.31865427    -0.79000
Zn2424     Zn  0.96379715  0.51009463  0.41889742     1.55700
O2425       O  0.50812898  0.92839021  0.36563529    -0.80400
Cd2426     Cd  0.98530034  0.99597129  0.33469568     1.59700
Cd2427     Cd  0.53448535  0.52302739  0.39480447     1.59600
O2428       O  0.00409782  0.03565711  0.32376086    -0.80400
O2429       O  0.99794301  0.49577945  0.39354184    -1.90900
Cd2430     Cd  0.50833372  0.95660902  0.41617786     1.59900
O2431       O  0.54937160  0.52247757  0.33022998    -0.80300
O2432       O  0.48693717  0.95081791  0.47503211    -0.79000
C2433       C  0.99272273  0.57020513  0.42839719     0.83600
C2434       C  0.92355223  0.51806116  0.34304689     0.83200
O2435       O  0.96257280  0.49348003  0.47720718    -0.77900
C2436       C  0.51148763  0.93365179  0.32540857     0.84000
O2437       O  0.97400114  0.54963880  0.42855979    -0.78000
C2438       C  0.52721333  0.52701758  0.30663383     0.84100
C2439       C  0.57142942  0.97353163  0.44145018     0.84500
O2440       O  0.56747566  0.50089152  0.43129262    -0.80500
C2441       C  0.60045108  0.97739664  0.13290588     0.03700
C2442       C  0.60229071  0.95385911  0.16451280    -0.12500
C2443       C  0.62564177  0.93352741  0.16413763     0.01200
C2444       C  0.65056220  0.94282339  0.13982804    -0.11000
C2445       C  0.65003361  0.96808380  0.11174170     0.03700
C2446       C  0.62407238  0.98333071  0.10562652    -0.10400
H2447       H  0.58700219  0.95219131  0.19093461     0.09300
H2448       H  0.67124592  0.93254788  0.14712363     0.06800
H2449       H  0.62366266  0.50248800  0.08387991     0.06600
C2450       C  0.60077995  0.96312922  0.45697323     0.03700
C2451       C  0.60512725  0.93467673  0.47656048    -0.12500
C2452       C  0.63397331  0.92392348  0.48516490     0.01200
C2453       C  0.65830301  0.94240517  0.47172124    -0.11000
C2454       C  0.65402842  0.97077612  0.45288960     0.03700
C2455       C  0.62534726  0.98090023  0.44687481    -0.10400
H2456       H  0.58605980  0.92117208  0.48525906     0.09300
H2457       H  0.68073495  0.93455722  0.47404190     0.06800
H2458       H  0.62227084  0.50225205  0.43113625     0.06600
O2459       O  0.69798708  0.96524993  0.08557098    -0.78000
C2460       C  0.77173281  0.48675586  0.99787657     0.83100
O2461       O  0.74903012  0.93964591  0.17127064    -0.79100
O2462       O  0.81596911  0.49096071  0.09976533    -0.80600
O2463       O  0.74262167  0.56951719  0.10842809    -0.80400
O2464       O  0.68194653  0.50975048  0.10367940    -0.79000
Zn2465     Zn  0.74017495  0.96847631  0.07747272     1.55700
O2466       O  0.78863540  0.55388993  0.09943252    -0.80400
Cd2467     Cd  0.72089989  0.52944525  0.12475607     1.59700
Cd2468     Cd  0.76482432  0.98334444  0.16922492     1.59600
O2469       O  0.71229694  0.53586353  0.18937706    -0.80400
O2470       O  0.75003590  0.99895389  0.11354646    -1.90900
Cd2471     Cd  0.78227208  0.51385622  0.07958172     1.59900
O2472       O  0.74462367  0.00484859  0.21884354    -0.80300
O2473       O  0.78201712  0.50860645  0.01669374    -0.79000
C2474       C  0.74599366  0.92488070  0.13796105     0.83600
C2475       C  0.67778163  0.98216001  0.09773293     0.83200
O2476       O  0.75448576  0.96831601  0.01664778    -0.77900
C2477       C  0.77082921  0.57333950  0.10990168     0.84000
O2478       O  0.75719161  0.93376210  0.10287915    -0.78000
C2479       C  0.72485140  0.02453947  0.22194912     0.84100
C2480       C  0.82433717  0.50181256  0.13364868     0.84500
O2481       O  0.80927169  0.99758025  0.16796231    -0.80500
O2482       O  0.67407674  0.99849368  0.39387971    -0.78000
C2483       C  0.71725573  0.53337715  0.26530657     0.83100
O2484       O  0.75405992  0.94234479  0.33600626    -0.79100
O2485       O  0.79512603  0.54319849  0.32109034    -0.80600
O2486       O  0.74352100  0.56104672  0.44780299    -0.80400
O2487       O  0.70323267  0.49203834  0.45048986    -0.79000
Zn2488     Zn  0.70482683  0.99895483  0.34683720     1.55700
O2489       O  0.76520000  0.57885872  0.38815340    -0.80400
Cd2490     Cd  0.73742327  0.52017586  0.42570719     1.59700
Cd2491     Cd  0.77146369  0.97837516  0.36629006     1.59600
O2492       O  0.77995484  0.51001685  0.43354041    -0.80400
O2493       O  0.74108582  0.01130602  0.36654438    -1.90900
Cd2494     Cd  0.75389811  0.54864416  0.34103676     1.59900
O2495       O  0.77504563  0.96338478  0.43062462    -0.80300
O2496       O  0.73358092  0.55279260  0.28202137    -0.79000
C2497       C  0.72655788  0.93741130  0.33036921     0.83600
C2498       C  0.67849289  0.98811774  0.43180086     0.83200
O2499       O  0.69995888  0.01639343  0.28736037    -0.77900
C2500       C  0.76127271  0.57902508  0.42861855     0.84000
O2501       O  0.70729402  0.95704531  0.33552729    -0.78000
C2502       C  0.77779922  0.98577170  0.45266764     0.84100
C2503       C  0.81542595  0.52441446  0.32477574     0.84500
O2504       O  0.81091353  0.99833057  0.34108127    -0.80500
C2505       C  0.77222789  0.64699923  0.15255006     0.03700
C2506       C  0.79647936  0.64446802  0.18171012    -0.12500
C2507       C  0.81823173  0.62237616  0.17766963     0.01200
C2508       C  0.81049373  0.59918651  0.15124730    -0.11000
C2509       C  0.78361278  0.59974156  0.12770112     0.03700
C2510       C  0.76668822  0.62472918  0.12562334    -0.10400
H2511       H  0.79909581  0.65976130  0.20659497     0.09300
H2512       H  0.82459654  0.58020165  0.15091741     0.06800
H2513       H  0.74736143  0.62576273  0.10550401     0.06600
C2514       C  0.77718344  0.60102199  0.45347002     0.03700
C2515       C  0.76481119  0.62864811  0.45402308    -0.12500
C2516       C  0.78056343  0.65235783  0.46889428     0.01200
C2517       C  0.80858037  0.64756180  0.48818626    -0.11000
C2518       C  0.82125965  0.61909788  0.49140114     0.03700
C2519       C  0.80536435  0.59591860  0.47249170    -0.10400
H2520       H  0.74388824  0.63223062  0.43817528     0.09300
H2521       H  0.82115782  0.66616658  0.49872428     0.06800
H2522       H  0.81514910  0.57431294  0.47154471     0.06600
O2523       O  0.56984348  0.76927003  0.07297380    -0.78000
C2524       C  0.48219945  0.76528155  0.99857670     0.83100
O2525       O  0.99496449  0.81276510  0.14105485    -0.79100
O2526       O  0.95102825  0.71631487  0.09910521    -0.80600
O2527       O  0.51586617  0.68211897  0.14568373    -0.80400
O2528       O  0.57159544  0.74932006  0.13903055    -0.79000
Zn2529     Zn  0.52686542  0.76749105  0.06669296     1.55700
O2530       O  0.00231806  0.68076183  0.07814928    -0.80400
Cd2531     Cd  0.53535647  0.72307573  0.14726951     1.59700
Cd2532     Cd  0.98197263  0.76751160  0.15209290     1.59600
O2533       O  0.53369420  0.72575630  0.21231815    -0.80400
O2534       O  0.50762852  0.74631227  0.11194809    -1.90900
Cd2535     Cd  0.98822078  0.72221281  0.07166768     1.59900
O2536       O  0.99450648  0.75472111  0.21438520    -0.80300
O2537       O  0.97327735  0.74094205  0.01520741    -0.79000
C2538       C  0.51507764  0.82059941  0.11347971     0.83600
C2539       C  0.57990374  0.76848548  0.11072928     0.83200
O2540       O  0.50532798  0.77750456  0.01215145    -0.77900
C2541       C  0.00046508  0.67115278  0.11669526     0.84000
O2542       O  0.52465255  0.80329250  0.08734193    -0.78000
C2543       C  0.01430424  0.73905117  0.23313136     0.84100
C2544       C  0.93279295  0.72609445  0.12497860     0.84500
O2545       O  0.93831847  0.74914046  0.14594996    -0.80500
O2546       O  0.94277150  0.76748879  0.44910719    -0.78000
C2547       C  0.91932656  0.73982650  0.33082882     0.83100
O2548       O  0.50813977  0.68778767  0.40006940    -0.79100
O2549       O  0.98596873  0.73578566  0.29381810    -0.80600
O2550       O  0.51226173  0.82771263  0.35794021    -0.80400
O2551       O  0.47333535  0.80483804  0.44882827    -0.79000
Zn2552     Zn  0.95861923  0.73941802  0.40777988     1.55700
O2553       O  0.99522113  0.80893940  0.29844989    -0.80400
Cd2554     Cd  0.50558027  0.79596109  0.40564302     1.59700
Cd2555     Cd  0.52574649  0.73034141  0.37460456     1.59600
O2556       O  0.54515792  0.79121559  0.43549423    -0.80400
O2557       O  0.99232496  0.75866324  0.38114753    -1.90900
Cd2558     Cd  0.97508387  0.77057729  0.32566637     1.59900
O2559       O  0.56216201  0.74913251  0.41047740    -0.80300
O2560       O  0.93019242  0.76457827  0.31787579    -0.79000
C2561       C  0.98601015  0.68242461  0.42579715     0.83600
C2562       C  0.96424551  0.78064332  0.46587854     0.83200
O2563       O  0.92930363  0.72641299  0.36382202    -0.77900
C2564       C  0.50877380  0.82908563  0.31776531     0.84000
O2565       O  0.96983505  0.70312498  0.43811259    -0.78000
C2566       C  0.56567354  0.77248625  0.43221806     0.84100
C2567       C  0.51188056  0.73491287  0.27971644     0.84500
O2568       O  0.53351228  0.73221642  0.30575431    -0.80500
C2569       C  0.60365259  0.78817027  0.12220586     0.03700
C2570       C  0.59967240  0.81212472  0.15043984    -0.12500
C2571       C  0.62457869  0.82594925  0.16855436     0.01200
C2572       C  0.65203973  0.81308812  0.15898788    -0.11000
C2573       C  0.65490572  0.78730269  0.13566733     0.03700
C2574       C  0.63128556  0.77689342  0.11422569    -0.10400
H2575       H  0.57767478  0.81873721  0.15962214     0.09300
H2576       H  0.67186231  0.82233820  0.17166872     0.06800
H2577       H  0.63368826  0.75730341  0.09599142     0.06600
C2578       C  0.64795303  0.77234522  0.45548725     0.03700
C2579       C  0.62009786  0.76358329  0.44179562    -0.12500
C2580       C  0.59467627  0.77965518  0.45262884     0.01600
C2581       C  0.59780447  0.80473696  0.47894890    -0.11000
C2582       C  0.62582582  0.81338137  0.49448168     0.03700
C2583       C  0.65009027  0.79644269  0.48216594    -0.10400
H2584       H  0.61853631  0.74578173  0.42015802     0.09300
H2585       H  0.57859905  0.81751708  0.48699139     0.06800
H2586       H  0.67193534  0.80326878  0.49127140     0.06600
O2587       O  0.80706929  0.70462948  0.17465625    -0.78000
C2588       C  0.73362387  0.72661730  0.27399342     0.83100
O2589       O  0.74496363  0.68504305  0.11425312    -0.79100
O2590       O  0.69761145  0.77691726  0.17020782    -0.80600
O2591       O  0.76893461  0.80900675  0.12920588    -0.80400
O2592       O  0.82559447  0.74806156  0.15193692    -0.79000
Zn2593     Zn  0.76711175  0.71334266  0.19753121     1.55700
O2594       O  0.74913298  0.81009283  0.19376010    -0.80400
Cd2595     Cd  0.78740769  0.76752429  0.13145819     1.59700
Cd2596     Cd  0.73163530  0.73008807  0.11078928     1.59600
O2597       O  0.79368210  0.76496385  0.06732460    -0.80400
O2598       O  0.75521157  0.74410230  0.15856684    -1.90900
Cd2599     Cd  0.73457272  0.76829922  0.19644157     1.59900
O2600       O  0.74787901  0.75068668  0.05425470    -0.80300
O2601       O  0.72320426  0.74815768  0.25232472    -0.79000
C2602       C  0.75155714  0.67199151  0.14985198     0.83600
C2603       C  0.82722326  0.71997649  0.15626976     0.83200
O2604       O  0.75553523  0.71215406  0.26038580    -0.77900
C2605       C  0.75154563  0.82049180  0.15573523     0.84000
O2606       O  0.74211711  0.68196467  0.18373826    -0.78000
C2607       C  0.77258591  0.76209719  0.04195635     0.84100
C2608       C  0.68172696  0.76960087  0.14011996     0.84500
O2609       O  0.68861990  0.74838281  0.11626182    -0.80500
O2610       O  0.81732482  0.73820017  0.36959067    -0.78000
C2611       C  0.77570520  0.77216418  0.49733190     0.83100
O2612       O  0.74290173  0.68601659  0.44555431    -0.79100
O2613       O  0.69630298  0.78110351  0.43445477    -0.80600
O2614       O  0.74144825  0.80791436  0.31895608    -0.80400
O2615       O  0.79047205  0.74395590  0.31037991    -0.79000
Zn2616     Zn  0.78955508  0.74179471  0.41978835     1.55700
O2617       O  0.73578061  0.82678693  0.38263525    -0.80400
Cd2618     Cd  0.75289886  0.76523000  0.33762454     1.59700
Cd2619     Cd  0.72356912  0.71829591  0.40510722     1.59600
O2620       O  0.71297474  0.74643575  0.33241733    -0.80400
O2621       O  0.75249384  0.75318095  0.39791410    -1.90900
Cd2622     Cd  0.73864312  0.78872148  0.42198888     1.59900
O2623       O  0.72512841  0.70127664  0.34286032    -0.80300
O2624       O  0.75419653  0.78676024  0.48192370    -0.79000
C2625       C  0.77031171  0.68175975  0.45370122     0.83600
C2626       C  0.81415766  0.73566580  0.32940154     0.83200
O2627       O  0.79690301  0.76294622  0.47421908    -0.77900
C2628       C  0.73361721  0.82884223  0.34212697     0.84000
O2629       O  0.78974064  0.70102238  0.44386073    -0.78000
C2630       C  0.72168354  0.72316249  0.31728005     0.84100
C2631       C  0.67634328  0.76155870  0.43742498     0.84500
O2632       O  0.68136079  0.73496022  0.42704150    -0.80500
C2633       C  0.66313075  0.86804834  0.57099021     0.87000
C2634       C  0.65622190  0.83952628  0.54873525    -0.53200
C2635       C  0.63205158  0.83986455  0.02229351     0.09900
C2636       C  0.61542722  0.87022661  0.02282901     0.20900
C2637       C  0.66418428  0.89163552  0.53451558    -0.53900
C2638       C  0.63907474  0.89491666  0.01070125     0.10100
C2639       C  0.63372157  0.87475405  0.59453500    -0.53500
C2640       C  0.60835427  0.87507769  0.57050668     0.10600
H2641       H  0.66969599  0.82023801  0.05370566     0.15100
H2642       H  0.59557663  0.87091900  0.00249580     0.00900
H2643       H  0.68277009  0.90657164  0.03088339     0.15400
H2644       H  0.63331701  0.87812995  0.62787419     0.15200
C2645       C  0.64943350  0.87882631  0.75623165     0.87000
C2646       C  0.64653320  0.85131004  0.73031427    -0.53200
C2647       C  0.62448182  0.85099335  0.70076562     0.09900
C2648       C  0.60528371  0.88004574  0.70254588     0.20900
C2649       C  0.65079948  0.90446035  0.72244651    -0.53900
C2650       C  0.62749608  0.90685265  0.69554254     0.10100
C2651       C  0.61869426  0.88167155  0.77759795    -0.53500
C2652       C  0.59527956  0.88203956  0.74998198     0.10600
H2653       H  0.66147013  0.83311427  0.73483876     0.15100
H2654       H  0.58655958  0.88022359  0.68071248     0.00900
H2655       H  0.66866470  0.92049271  0.72083546     0.15400
H2656       H  0.61569016  0.88273048  0.81176993     0.15200
C2657       C  0.90742750  0.61793161  0.00572367     0.87000
C2658       C  0.90356628  0.64384142  0.53453647    -0.53200
C2659       C  0.88003363  0.64307430  0.56265159     0.09900
C2660       C  0.86095423  0.61420766  0.55744552     0.20900
C2661       C  0.90730437  0.59082163  0.53713749    -0.53900
C2662       C  0.88333234  0.58743157  0.56381177     0.10100
C2663       C  0.87732811  0.61651879  0.98269761    -0.53500
C2664       C  0.85257940  0.61505677  0.00895504     0.10600
H2665       H  0.91869669  0.66224746  0.53172442     0.15100
H2666       H  0.84138529  0.61276607  0.57885177     0.00900
H2667       H  0.92510239  0.57508501  0.53828936     0.15400
H2668       H  0.87572768  0.61835410  0.94830640     0.15200
C2669       C  0.90458281  0.63032293  0.69468489     0.87000
C2670       C  0.89913648  0.65904246  0.71750360    -0.53200
C2671       C  0.87506083  0.65926983  0.74475222     0.09900
C2672       C  0.85717092  0.62932306  0.74492086     0.20900
C2673       C  0.90525163  0.60679729  0.73078812    -0.53900
C2674       C  0.88061028  0.60441981  0.75628203     0.10100
C2675       C  0.87478327  0.62391498  0.67246359    -0.53500
C2676       C  0.84940006  0.62469206  0.69722957     0.10600
H2677       H  0.91361853  0.67795658  0.71318633     0.15100
H2678       H  0.83751417  0.62885380  0.76637127     0.00900
H2679       H  0.92323491  0.59121183  0.73321578     0.15400
H2680       H  0.87402080  0.61859940  0.63961360     0.15200
C2681       C  0.53147577  0.84852683  0.61182046     0.03700
C2682       C  0.52164936  0.87157546  0.63479042    -0.12500
C2683       C  0.53787800  0.89746790  0.63425771     0.01200
C2684       C  0.56550048  0.89990860  0.61141848    -0.11000
C2685       C  0.57711491  0.87587146  0.58976990     0.03700
C2686       C  0.55890243  0.85094202  0.58861048    -0.10400
H2687       H  0.00101493  0.86950834  0.65261207     0.09300
H2688       H  0.57772650  0.92028807  0.61015355     0.06800
H2689       H  0.56724258  0.83255326  0.57145210     0.06600
C2690       C  0.52018450  0.85583861  0.79488257     0.03700
C2691       C  0.54794953  0.85623057  0.77382515    -0.12500
C2692       C  0.56350225  0.88294639  0.76545936     0.01200
C2693       C  0.55046367  0.90942792  0.77900144    -0.11000
C2694       C  0.52238283  0.90899911  0.79990148     0.03700
C2695       C  0.50743448  0.88224325  0.80617517    -0.10400
H2696       H  0.55861105  0.83561730  0.76739265     0.09300
H2697       H  0.56299465  0.92977897  0.77608365     0.06800
H2698       H  0.98694990  0.88155613  0.82454147     0.06600
C2699       C  0.90501881  0.70900888  0.62674944     0.03700
C2700       C  0.90374630  0.68259361  0.60477957    -0.12500
C2701       C  0.87738405  0.66816620  0.59453237     0.01200
C2702       C  0.85130150  0.67965277  0.61328308    -0.11000
C2703       C  0.85308553  0.70504969  0.63928197     0.03700
C2704       C  0.87985422  0.71943758  0.64501264    -0.10400
H2705       H  0.92426803  0.67346849  0.59431028     0.09300
H2706       H  0.83005206  0.66994263  0.60663414     0.06800
H2707       H  0.88090365  0.73946063  0.66244532     0.06600
C2708       C  0.89384115  0.72690350  0.80937490     0.03700
C2709       C  0.89578376  0.70033217  0.78812745    -0.12500
C2710       C  0.87030312  0.68596125  0.77253712     0.01200
C2711       C  0.84214740  0.69811909  0.78333291    -0.11000
C2712       C  0.84053544  0.72489335  0.80590279     0.03700
C2713       C  0.86658826  0.73944765  0.81586690    -0.10400
H2714       H  0.91742808  0.69074581  0.78404546     0.09300
H2715       H  0.82203505  0.68677564  0.77518470     0.06800
H2716       H  0.86553582  0.75944061  0.83346156     0.06600
C2717       C  0.72897999  0.89757271  0.63786611     0.03700
C2718       C  0.70428988  0.89524195  0.61089508    -0.12500
C2719       C  0.69200014  0.86815381  0.59970804     0.01200
C2720       C  0.70885875  0.84302001  0.61329867    -0.11000
C2721       C  0.73332075  0.84557068  0.64162578     0.03700
C2722       C  0.74200239  0.87270319  0.65507331    -0.10400
H2723       H  0.69573658  0.91477838  0.59603693     0.09300
H2724       H  0.70321538  0.82150948  0.60289407     0.06800
H2725       H  0.76135468  0.87462073  0.67486163     0.06600
C2726       C  0.71967092  0.85535767  0.82223041     0.03700
C2727       C  0.73124959  0.88298816  0.83032319    -0.12500
C2728       C  0.71572907  0.90836887  0.81846344     0.01200
C2729       C  0.68812320  0.90605201  0.79852962    -0.11000
C2730       C  0.67674428  0.87890147  0.78621670     0.03700
C2731       C  0.69275874  0.85328718  0.79958601    -0.10400
H2732       H  0.75164058  0.88463604  0.84782683     0.09300
H2733       H  0.67578575  0.92588932  0.79125936     0.06800
H2734       H  0.68398568  0.83161699  0.79454949     0.06600
C2735       C  0.85050779  0.52077888  0.63149765     0.03700
C2736       C  0.87442976  0.51080114  0.65439823    -0.12500
C2737       C  0.90221285  0.52089091  0.64291094     0.01200
C2738       C  0.90560730  0.54512985  0.61275641    -0.11000
C2739       C  0.88068655  0.55993622  0.59463227     0.03700
C2740       C  0.85366648  0.54499592  0.60120533    -0.10400
H2741       H  0.87202115  0.99175538  0.67632214     0.09300
H2742       H  0.92762925  0.55191330  0.60318310     0.06800
H2743       H  0.83621096  0.55117302  0.58005013     0.06600
C2744       C  0.84522331  0.53543249  0.81279701     0.03700
C2745       C  0.86990562  0.52082736  0.82910709    -0.12500
C2746       C  0.89785978  0.53335236  0.82403298     0.01200
C2747       C  0.90120618  0.56114112  0.80226431    -0.11000
C2748       C  0.87657751  0.57658866  0.78473672     0.03700
C2749       C  0.84869784  0.56315897  0.79043374    -0.10400
H2750       H  0.86735043  0.00009385  0.84697811     0.09300
H2751       H  0.92314288  0.57070841  0.79948374     0.06800
H2752       H  0.82960288  0.57426891  0.77718514     0.06600
C2753       C  0.96766009  0.59730546  0.62640071     0.03700
C2754       C  0.98438101  0.62096656  0.61199297    -0.12500
C2755       C  0.97896794  0.64797054  0.62838328     0.01200
C2756       C  0.95425396  0.65203240  0.65653425    -0.11000
C2757       C  0.93321365  0.62888491  0.66538642     0.03700
C2758       C  0.94105373  0.60154122  0.64975648    -0.10400
H2759       H  0.50431479  0.61766861  0.59328024     0.09300
H2760       H  0.95138978  0.67328317  0.66979813     0.06800
H2761       H  0.92812746  0.58269510  0.66067713     0.06600
C2762       C  0.98037951  0.59849629  0.94341458     0.03700
C2763       C  0.99214268  0.62643958  0.93159462    -0.12500
C2764       C  0.97609398  0.65196816  0.94074611     0.01200
C2765       C  0.94798127  0.64872650  0.96205065    -0.11000
C2766       C  0.93628243  0.62116660  0.97686304     0.03700
C2767       C  0.95295560  0.59654698  0.96635990    -0.10400
H2768       H  0.51267666  0.62823066  0.91360938     0.09300
H2769       H  0.93477970  0.66804109  0.96660033     0.06800
H2770       H  0.94379359  0.57512469  0.97482623     0.06600
O2771       O  0.93867547  0.50644580  0.69325926    -0.78000
C2772       C  0.02327933  0.01559191  0.76440829     0.83100
O2773       O  0.50162633  0.56048072  0.60267720    -0.79100
O2774       O  0.56672821  0.00812962  0.66537066    -0.80600
O2775       O  0.99623109  0.92502819  0.65661332    -0.80400
O2776       O  0.93685972  0.98307205  0.63287979    -0.79000
Zn2777     Zn  0.98050777  0.51736576  0.68996038     1.55700
O2778       O  0.54160419  0.94176329  0.66848374    -0.80400
Cd2779     Cd  0.97783082  0.96315975  0.63183077     1.59700
Cd2780     Cd  0.51668379  0.51701761  0.60015307     1.59600
O2781       O  0.98020997  0.95570151  0.56786365    -0.80400
O2782       O  0.00204209  0.49536081  0.65257676    -1.90900
Cd2783     Cd  0.53485242  0.98270908  0.68886904     1.59900
O2784       O  0.49527049  0.50076759  0.54806395    -0.80300
O2785       O  0.53831943  0.99433263  0.75113227    -0.79000
C2786       C  0.98207355  0.56880571  0.62935132     0.83600
C2787       C  0.92708654  0.50255185  0.65731697     0.83200
O2788       O  0.00132791  0.52560454  0.74357567    -0.77900
C2789       C  0.52444508  0.92235528  0.65511141     0.84000
O2790       O  0.97483753  0.55343267  0.66182617    -0.78000
C2791       C  0.48387897  0.47602988  0.53957249     0.84100
C2792       C  0.57576977  0.99817450  0.63116956     0.84500
O2793       O  0.56144176  0.50366797  0.59699329    -0.80500
O2794       O  0.92671758  0.51717171  0.88334661    -0.78000
C2795       C  0.97583976  0.97193277  0.99543462     0.83100
O2796       O  0.51951126  0.56576699  0.91596122    -0.79100
O2797       O  0.55149405  0.95440938  0.93569037    -0.80600
O2798       O  0.00527837  0.95871264  0.80758157    -0.80400
O2799       O  0.94291898  0.00750726  0.81865430    -0.79000
Zn2800     Zn  0.96379714  0.51009458  0.91889748     1.55700
O2801       O  0.50812889  0.92839025  0.86563533    -0.80400
Cd2802     Cd  0.98530030  0.99597131  0.83469574     1.59700
Cd2803     Cd  0.53448530  0.52302740  0.89480451     1.59600
O2804       O  0.00409776  0.03565715  0.82376087    -0.80400
O2805       O  0.99794302  0.49577943  0.89354191    -1.90900
Cd2806     Cd  0.50833367  0.95660904  0.91617787     1.59900
O2807       O  0.54937153  0.52247759  0.83023002    -0.80300
O2808       O  0.48693710  0.95081792  0.97503210    -0.79000
C2809       C  0.99272269  0.57020510  0.92839719     0.83600
C2810       C  0.92355221  0.51806110  0.84304706     0.83200
O2811       O  0.96257278  0.49348002  0.97720720    -0.77900
C2812       C  0.51148760  0.93365183  0.82540862     0.84000
O2813       O  0.97400110  0.54963876  0.92855979    -0.78000
C2814       C  0.52721328  0.52701761  0.80663386     0.84100
C2815       C  0.57142938  0.97353155  0.94145014     0.84500
O2816       O  0.56747566  0.50089154  0.93129262    -0.80500
C2817       C  0.60045111  0.97739664  0.63290590     0.03700
C2818       C  0.60229073  0.95385911  0.66451281    -0.12500
C2819       C  0.62564176  0.93352739  0.66413765     0.01200
C2820       C  0.65056220  0.94282338  0.63982807    -0.11000
C2821       C  0.65003362  0.96808378  0.61174171     0.03700
C2822       C  0.62407239  0.98333070  0.60562651    -0.10400
H2823       H  0.58700220  0.95219133  0.69093465     0.09300
H2824       H  0.67124593  0.93254785  0.64712363     0.06800
H2825       H  0.62366269  0.50248790  0.58387986     0.06600
C2826       C  0.60077991  0.96312914  0.95697317     0.03700
C2827       C  0.60512725  0.93467666  0.97656039    -0.12500
C2828       C  0.63397329  0.92392345  0.98516489     0.01200
C2829       C  0.65830298  0.94240517  0.97172127    -0.11000
C2830       C  0.65402838  0.97077611  0.95288965     0.03700
C2831       C  0.62534722  0.98090019  0.94687481    -0.10400
H2832       H  0.58605980  0.92117198  0.98525889     0.09300
H2833       H  0.68073493  0.93455724  0.97404201     0.06800
H2834       H  0.62227083  0.50225205  0.93113623     0.06600
O2835       O  0.69798710  0.96524994  0.58557098    -0.78000
C2836       C  0.77173283  0.48675591  0.49787653     0.83100
O2837       O  0.74903010  0.93964597  0.67127063    -0.79100
O2838       O  0.81596917  0.49096070  0.59976525    -0.80600
O2839       O  0.74262167  0.56951712  0.60842808    -0.80400
O2840       O  0.68194655  0.50975042  0.60367949    -0.79000
Zn2841     Zn  0.74017498  0.96847634  0.57747274     1.55700
O2842       O  0.78863540  0.55388988  0.59943247    -0.80400
Cd2843     Cd  0.72089991  0.52944519  0.62475609     1.59700
Cd2844     Cd  0.76482435  0.98334449  0.66922493     1.59600
O2845       O  0.71229698  0.53586349  0.68937705    -0.80400
O2846       O  0.75003593  0.99895394  0.61354647    -1.90900
Cd2847     Cd  0.78227211  0.51385618  0.57958170     1.59900
O2848       O  0.74462363  0.00484861  0.71884357    -0.80300
O2849       O  0.78201714  0.50860649  0.51669372    -0.79000
C2850       C  0.74599364  0.92488075  0.63796103     0.83600
C2851       C  0.67778164  0.98216000  0.59773296     0.83200
O2852       O  0.75448580  0.96831600  0.51664782    -0.77900
C2853       C  0.77082922  0.57333943  0.60990165     0.84000
O2854       O  0.75719162  0.93376215  0.60287915    -0.78000
C2855       C  0.72485134  0.02453946  0.72194916     0.84100
C2856       C  0.82433722  0.50181252  0.63364862     0.84500
O2857       O  0.80927172  0.99758033  0.66796233    -0.80500
O2858       O  0.67407670  0.99849363  0.89387975    -0.78000
C2859       C  0.71725579  0.53337713  0.76530655     0.83100
O2860       O  0.75405988  0.94234477  0.83600621    -0.79100
O2861       O  0.79512602  0.54319839  0.82109037    -0.80600
O2862       O  0.74352104  0.56104662  0.94780297    -0.80400
O2863       O  0.70323270  0.49203826  0.95048978    -0.79000
Zn2864     Zn  0.70482679  0.99895479  0.84683723     1.55700
O2865       O  0.76520005  0.57885863  0.88815339    -0.80400
Cd2866     Cd  0.73742331  0.52017577  0.92570715     1.59700
Cd2867     Cd  0.77146366  0.97837519  0.86629000     1.59600
O2868       O  0.77995488  0.51001675  0.93354042    -0.80400
O2869       O  0.74108578  0.01130605  0.86654441    -1.90900
Cd2870     Cd  0.75389813  0.54864409  0.84103676     1.59900
O2871       O  0.77504563  0.96338482  0.93062456    -0.80300
O2872       O  0.73358099  0.55279257  0.78202135    -0.79000
C2873       C  0.72655784  0.93741126  0.83036923     0.83600
C2874       C  0.67849285  0.98811775  0.93180093     0.83200
O2875       O  0.69995883  0.01639338  0.78736041    -0.77900
C2876       C  0.76127277  0.57902497  0.92861855     0.84000
O2877       O  0.70729398  0.95704526  0.83552732    -0.78000
C2878       C  0.77779918  0.98577174  0.95266761     0.84100
C2879       C  0.81542594  0.52441437  0.82477580     0.84500
O2880       O  0.81091348  0.99833063  0.84108117    -0.80500
C2881       C  0.77222792  0.64699917  0.65254998     0.03700
C2882       C  0.79647938  0.64446797  0.68171009    -0.12500
C2883       C  0.81823173  0.62237608  0.67766964     0.01200
C2884       C  0.81049369  0.59918647  0.65124731    -0.11000
C2885       C  0.78361278  0.59974149  0.62770108     0.03700
C2886       C  0.76668824  0.62472912  0.62562325    -0.10400
H2887       H  0.79909582  0.65976122  0.70659491     0.09300
H2888       H  0.82459654  0.58020152  0.65091745     0.06800
H2889       H  0.74736147  0.62576269  0.60550392     0.06600
C2890       C  0.77718346  0.60102190  0.95347000     0.03700
C2891       C  0.76481120  0.62864801  0.95402303    -0.12500
C2892       C  0.78056342  0.65235774  0.96889423     0.01200
C2893       C  0.80858037  0.64756173  0.98818623    -0.11000
C2894       C  0.82125965  0.61909782  0.99140112     0.03700
C2895       C  0.80536437  0.59591854  0.97249168    -0.10400
H2896       H  0.74388825  0.63223050  0.93817524     0.09300
H2897       H  0.82115782  0.66616651  0.99872420     0.06800
H2898       H  0.81514914  0.57431287  0.97154472     0.06600
O2899       O  0.56984346  0.76927004  0.57297377    -0.78000
C2900       C  0.48219942  0.76528157  0.49857666     0.83100
O2901       O  0.99496446  0.81276516  0.64105497    -0.79100
O2902       O  0.95102831  0.71631490  0.59910516    -0.80600
O2903       O  0.51586620  0.68211896  0.64568363    -0.80400
O2904       O  0.57159547  0.74932002  0.63903048    -0.79000
Zn2905     Zn  0.52686541  0.76749103  0.56669290     1.55700
O2906       O  0.00231807  0.68076180  0.57814936    -0.80400
Cd2907     Cd  0.53535644  0.72307575  0.64726945     1.59700
Cd2908     Cd  0.98197263  0.76751164  0.65209293     1.59600
O2909       O  0.53369418  0.72575634  0.71231810    -0.80400
O2910       O  0.50762849  0.74631229  0.61194805    -1.90900
Cd2911     Cd  0.98822087  0.72221281  0.57166768     1.59900
O2912       O  0.99450642  0.75472115  0.71438525    -0.80300
O2913       O  0.97327747  0.74094206  0.51520738    -0.79000
C2914       C  0.51507765  0.82059941  0.61347963     0.83600
C2915       C  0.57990375  0.76848546  0.61072923     0.83200
O2916       O  0.50532798  0.77750453  0.51215137    -0.77900
C2917       C  0.00046506  0.67115277  0.61669535     0.84000
O2918       O  0.52465256  0.80329249  0.58734186    -0.78000
C2919       C  0.01430417  0.73905121  0.73313142     0.84100
C2920       C  0.93279299  0.72609446  0.62497854     0.84500
O2921       O  0.93831849  0.74914047  0.64594991    -0.80500
O2922       O  0.94277140  0.76748874  0.94910716    -0.78000
C2923       C  0.91932659  0.73982645  0.83082887     0.83100
O2924       O  0.50813973  0.68778768  0.90006936    -0.79100
O2925       O  0.98596868  0.73578574  0.79381817    -0.80600
O2926       O  0.51226161  0.82771267  0.85794020    -0.80400
O2927       O  0.47333536  0.80483797  0.94882825    -0.79000
Zn2928     Zn  0.95861923  0.73941796  0.90777994     1.55700
O2929       O  0.99522117  0.80893945  0.79845005    -0.80400
Cd2930     Cd  0.50558026  0.79596107  0.90564299     1.59700
Cd2931     Cd  0.52574651  0.73034141  0.87460453     1.59600
O2932       O  0.54515795  0.79121562  0.93549414    -0.80400
O2933       O  0.99232495  0.75866325  0.88114764    -1.90900
Cd2934     Cd  0.97508386  0.77057734  0.82566650     1.59900
O2935       O  0.56216205  0.74913252  0.91047737    -0.80300
O2936       O  0.93019241  0.76457826  0.81787593    -0.79000
C2937       C  0.98601013  0.68242458  0.92579718     0.83600
C2938       C  0.96424540  0.78064329  0.96587855     0.83200
O2939       O  0.92930370  0.72641290  0.86382202    -0.77900
C2940       C  0.50877366  0.82908567  0.81776530     0.84000
O2941       O  0.96983507  0.70312495  0.93811272    -0.78000
C2942       C  0.56567357  0.77248628  0.93221800     0.84100
C2943       C  0.51188056  0.73491290  0.77971639     0.84500
O2944       O  0.53351227  0.73221642  0.80575426    -0.80500
C2945       C  0.60365259  0.78817025  0.62220583     0.03700
C2946       C  0.59967239  0.81212470  0.65043979    -0.12500
C2947       C  0.62457866  0.82594923  0.66855435     0.01200
C2948       C  0.65203972  0.81308811  0.65898790    -0.11000
C2949       C  0.65490572  0.78730268  0.63566735     0.03700
C2950       C  0.63128558  0.77689340  0.61422570    -0.10400
H2951       H  0.57767477  0.81873718  0.65962205     0.09300
H2952       H  0.67186228  0.82233818  0.67166875     0.06800
H2953       H  0.63368829  0.75730340  0.59599141     0.06600
C2954       C  0.64795306  0.77234529  0.95548718     0.03700
C2955       C  0.62009791  0.76358334  0.94179555    -0.12500
C2956       C  0.59467630  0.77965522  0.95262878     0.01600
C2957       C  0.59780449  0.80473700  0.97894885    -0.11000
C2958       C  0.62582584  0.81338142  0.99448163     0.03700
C2959       C  0.65009027  0.79644276  0.98216584    -0.10400
H2960       H  0.61853636  0.74578179  0.92015799     0.09300
H2961       H  0.57859908  0.81751710  0.98699136     0.06800
H2962       H  0.67193536  0.80326889  0.99127129     0.06600
O2963       O  0.80706931  0.70462942  0.67465621    -0.78000
C2964       C  0.73362387  0.72661727  0.77399336     0.83100
O2965       O  0.74496369  0.68504302  0.61425305    -0.79100
O2966       O  0.69761146  0.77691727  0.67020783    -0.80600
O2967       O  0.76893466  0.80900680  0.62920596    -0.80400
O2968       O  0.82559452  0.74806149  0.65193692    -0.79000
Zn2969     Zn  0.76711176  0.71334259  0.69753115     1.55700
O2970       O  0.74913297  0.81009286  0.69376015    -0.80400
Cd2971     Cd  0.78740775  0.76752432  0.63145825     1.59700
Cd2972     Cd  0.73163534  0.73008807  0.61078924     1.59600
O2973       O  0.79368214  0.76496394  0.56732462    -0.80400
O2974       O  0.75521162  0.74410229  0.65856681    -1.90900
Cd2975     Cd  0.73457275  0.76829922  0.69644154     1.59900
O2976       O  0.74787907  0.75068669  0.55425468    -0.80300
O2977       O  0.72320430  0.74815766  0.75232465    -0.79000
C2978       C  0.75155717  0.67199146  0.64985191     0.83600
C2979       C  0.82722330  0.71997643  0.65626979     0.83200
O2980       O  0.75553522  0.71215399  0.76038574    -0.77900
C2981       C  0.75154564  0.82049184  0.65573528     0.84000
O2982       O  0.74211714  0.68196460  0.68373819    -0.78000
C2983       C  0.77258596  0.76209724  0.54195635     0.84100
C2984       C  0.68172698  0.76960088  0.64011996     0.84500
O2985       O  0.68861993  0.74838283  0.61626180    -0.80500
O2986       O  0.81732480  0.73820013  0.86959071    -0.78000
C2987       C  0.77570515  0.77216412  0.99733189     0.83100
O2988       O  0.74290173  0.68601647  0.94555418    -0.79100
O2989       O  0.69630302  0.78110355  0.93445467    -0.80600
O2990       O  0.74144829  0.80791434  0.81895604    -0.80400
O2991       O  0.79047208  0.74395588  0.81037989    -0.79000
Zn2992     Zn  0.78955506  0.74179465  0.91978838     1.55700
O2993       O  0.73578065  0.82678688  0.88263523    -0.80400
Cd2994     Cd  0.75289890  0.76522997  0.83762450     1.59700
Cd2995     Cd  0.72356910  0.71829585  0.90510718     1.59600
O2996       O  0.71297478  0.74643576  0.83241725    -0.80400
O2997       O  0.75249386  0.75318087  0.89791407    -1.90900
Cd2998     Cd  0.73864316  0.78872142  0.92198882     1.59900
O2999       O  0.72512831  0.70127661  0.84286024    -0.80300
O3000       O  0.75419646  0.78676012  0.98192367    -0.79000
C3001       C  0.77031169  0.68175966  0.95370117     0.83600
C3002       C  0.81415767  0.73566577  0.82940157     0.83200
O3003       O  0.79690300  0.76294621  0.97421908    -0.77900
C3004       C  0.73361722  0.82884220  0.84212695     0.84000
O3005       O  0.78974062  0.70102233  0.94386078    -0.78000
C3006       C  0.72168353  0.72316247  0.81727997     0.84100
C3007       C  0.67634331  0.76155874  0.93742494     0.84500
O3008       O  0.68136082  0.73496024  0.92704154    -0.80500
loop_ 
_geom_bond_atom_site_label_1 
_geom_bond_atom_site_label_2 
_geom_bond_distance 
_geom_bond_site_symmetry_2 
_ccdc_geom_bond_type 
C1            C2   1.534       .  S
C1            C7   1.554       .  S
C1            C5   1.538       .  S
C1           C87   1.598       .  S
C2          H385   1.079       .  S
C2          C379   1.382       .  D
C3            C4   1.579       .  S
C3          C378   1.382       .  D
C3          C326   1.547       .  S
C4            C6   1.579       .  S
C4          C384   1.556       .  S
C4           H10   1.109       .  S
C5          H387   1.080       .  S
C5          C382   1.374       .  D
C6          C381   1.374       .  D
C6          C196   1.537       .  S
C7           H12   1.067       .  S
C7            C8   1.382       .  D
C8          C380   1.556       .  S
C8           C53   1.533       .  S
H9          C378   1.079       .  S
H11         C381   1.080       .  S
C13          C14   1.530       .  S
C13          C19   1.546       .  S
C13          C17   1.546       .  S
C13          C98   1.564       .  S
C14          H21   1.079       .  S
C14          C15   1.373       .  D
C15          C16   1.590       .  S
C15         C315   1.558       .  S
C16          C20   1.561       .  S
C16          C18   1.582       .  S
C16          H22   1.097       .  S
C17          H23   1.085       .  S
C17          C18   1.363       .  D
C18         C187   1.536       .  S
C19          H24   1.086       .  S
C19          C20   1.378       .  D
C20          C60   1.514       .  S
C25          C31   1.553       .  S
C25         C402   1.528       .  S
C25         C405   1.548       .  S
C25         C134   1.584       .  S
C26         C401   1.528       .  S
C26          H33   1.079       .  S
C26          C27   1.375       .  D
C27          C28   1.583       .  S
C27          C69   1.557       .  S
C28          C30   1.598       .  S
C28         C408   1.576       .  S
C28          H34   1.106       .  S
C29         C401   1.548       .  S
C29          H35   1.081       .  S
C29          C30   1.367       .  D
C30         C107   1.554       .  S
C31          H36   1.086       .  S
C31          C32   1.383       .  D
C32         C404   1.576       .  S
C32         C262   1.537       .  S
C37          C38   1.538       .  S
C37          C43   1.558       .  S
C37          C41   1.529       .  S
C37         C125   1.584       .  S
C38          H45   1.082       .  S
C38          C39   1.379       .  D
C39          C40   1.581       .  S
C39          C78   1.542       .  S
C40          C44   1.568       .  S
C40          C42   1.591       .  S
C40          H46   1.110       .  S
C41          H47   1.085       .  S
C41          C42   1.367       .  D
C42         C116   1.529       .  S
C43          H48   1.073       .  S
C43          C44   1.382       .  D
C44         C251   1.550       .  S
C49          C50   1.373       .  A
C49          C54   1.434       .  A
C49         C282   1.467       .  S
C50          C51   1.384       .  A
C50        H1559   1.085       .  S
C51          C52   1.436       .  A
C51         C157   1.465       .  S
C52          C53   1.414       .  A
C52          H56   1.076       .  S
C53          C54   1.400       .  A
C54          H57   1.083       .  S
H55        C1554   1.085       .  S
C58          C59   1.413       .  A
C58          C63   1.395       .  A
C58         C308   1.476       .  S
C59          C60   1.415       .  A
C59          H64   1.084       .  S
C60          C61   1.425       .  A
C61          C62   1.423       .  A
C61          H65   1.083       .  S
C62          C63   1.395       .  A
C62         C180   1.491       .  S
C63        H1570   1.086   1_455  S
H66        C1567   1.086       .  S
C67          C68   1.414       .  A
C67          C72   1.366       .  A
C67         C288   1.473       .  S
C68          C69   1.406       .  A
C68          H73   1.074       .  S
C69          C70   1.425       .  A
C70          C71   1.447       .  A
C70          H74   1.082       .  S
C71          C72   1.391       .  A
C71         C347   1.464       .  S
C72          H75   1.085       .  S
C76          C77   1.410       .  A
C76          C81   1.379       .  A
C76         C291   1.475       .  S
C77          C78   1.425       .  A
C77          H82   1.083       .  S
C78          C79   1.435       .  A
C79          C80   1.439       .  A
C79          H83   1.082       .  S
C80          C81   1.394       .  A
C80         C370   1.493       .  S
C81          H84   1.087       .  S
C85          C86   1.418       .  A
C85          C90   1.374       .  A
C85         C218   1.459       .  S
C86          C87   1.410       .  A
C86          H91   1.065       .  S
C87          C88   1.433       .  A
C88          C89   1.437       .  A
C88          H92   1.076       .  S
C89          C90   1.379       .  A
C89         C349   1.470       .  S
C90          H93   1.086       .  S
C94          C95   1.394       .  A
C94          C99   1.423       .  A
C94         C372   1.485       .  S
C95          C96   1.396       .  A
C95         H100   1.084       .  S
C96          C97   1.410       .  A
C96         C241   1.472       .  S
C97          C98   1.408       .  A
C97         H101   1.083       .  S
C98          C99   1.428       .  A
C99         H102   1.080       .  S
C103        C104   1.377       .  A
C103        C108   1.432       .  A
C103        C224   1.460       .  S
C104        C105   1.375       .  A
C104        H861   1.086   1_545  S
C105        C106   1.431       .  A
C105        C155   1.471       .  S
C106        C107   1.430       .  A
C106        H110   1.077       .  S
C107        C108   1.404       .  A
C108        H111   1.071       .  S
H109        C856   1.086       .  S
C112        C113   1.396       .  A
C112        C117   1.426       .  A
C112        C247   1.475       .  S
C113        C114   1.389       .  A
C113        H870   1.084       .  S
C114        C115   1.420       .  A
C114        C178   1.479       .  S
C115        C116   1.426       .  A
C115        H119   1.082       .  S
C116        C117   1.404       .  A
C117        H120   1.083       .  S
H118        C865   1.084       .  S
C121        C122   1.371       .  A
C121        C126   1.421       .  A
C121        C154   1.456       .  S
C122        C123   1.376       .  A
C122       H1631   1.086       .  S
C123        C124   1.436       .  A
C123        C285   1.463       .  S
C124        C125   1.432       .  A
C124        H128   1.078       .  S
C125        C126   1.404       .  A
C126        H129   1.077       .  S
H127       C1626   1.086   1_455  S
C130        C131   1.410       .  A
C130        C135   1.428       .  A
C130        C177   1.500       .  S
C131        C132   1.413       .  A
C131       H1640   1.083       .  S
C132        C133   1.434       .  A
C132        C305   1.509       .  S
C133        C134   1.417       .  A
C133        H137   1.080       .  S
C134        C135   1.404       .  A
C135        H138   1.079       .  S
H136       C1635   1.083   1_455  S
O139        C155   1.271       .  A
O139       Zn145   1.954       .  S
C140       C2438   1.461       .  S
C140        O908   1.273       .  A
C140       O1657   1.269       .  A
O141       C1658   1.282   1_455  A
O141       Cd148   2.102       .  S
O142        C160   1.251       .  A
O142       Cd151   1.961       .  S
O143       C1661   1.284       .  A
O143       Cd147   2.059       .  S
O144        C907   1.274       .  A
O144       Cd147   2.070       .  S
Zn145       O156   1.991       .  S
Zn145       O158   1.853       .  S
Zn145       O150   1.850   1_545  S
O146        C157   1.262       .  A
O146       Cd151   2.021       .  S
Cd147       O149   2.058       .  S
Cd147       O902   1.964       .  S
Cd148       O152   2.075   1_455  S
Cd148       O161   2.121       .  S
Cd148      O1654   1.990   1_545  S
O149       C2415   1.264       .  A
O150       Cd899   1.964       .  S
O150      Cd1652   1.990   1_565  S
O150      Cd2407   1.958       .  S
Cd151       O153   2.059       .  S
Cd151      O2406   1.957       .  S
O152        C159   1.276   1_545  A
O153       C1644   1.269       .  A
C154        O158   1.253       .  A
C154       O1645   1.282       .  A
C155        O896   1.274   1_545  A
O156        C892   1.273       .  A
C157       O1647   1.284   1_455  A
C159       C2795   1.460   1_554  S
C159       O2405   1.264       .  A
C160        C185   1.468       .  S
C160        O913   1.279       .  A
O161        C912   1.279   1_545  A
O162        C178   1.277       .  A
O162       Zn168   2.048       .  S
C163       C2791   1.460       .  S
C163        O931   1.271       .  A
C163       O1680   1.281       .  A
O164       C1681   1.289   1_455  A
O164       Cd171   2.192       .  S
O165        C183   1.270       .  A
O165       Cd174   2.056       .  S
O166       C1684   1.284       .  A
O166       Cd170   2.133       .  S
O167        C930   1.270       .  A
O167       Cd170   2.055       .  S
Zn168       O179   1.956   1_545  S
Zn168       O181   1.894       .  S
Zn168       O173   1.864   1_545  S
O169        C180   1.286       .  A
O169       Cd174   2.087       .  S
Cd170       O172   2.007       .  S
Cd170       O925   1.946       .  S
Cd171       O175   2.135       .  S
Cd171       O184   2.127       .  S
Cd171      O1677   2.063   1_445  S
O172       C2438   1.244       .  A
O173       Cd922   1.946       .  S
O173      Cd1675   2.063   1_565  S
O173      Cd2430   1.955       .  S
Cd174       O176   2.086   1_455  S
Cd174      O2429   1.955   1_455  S
O175        C182   1.268       .  A
O176       C1667   1.281       .  A
C177        O181   1.258       .  A
C177       O1668   1.289       .  A
C178        O919   1.270       .  A
O179        C915   1.271       .  A
C180       O1670   1.284       .  A
C182       C2396   1.461       .  S
C182       O2428   1.244       .  A
C183        C194   1.494       .  S
C183        O936   1.288       .  A
O184        C935   1.288   1_545  A
C185        C186   1.435       .  A
C185        C190   1.381       .  A
C186        C187   1.410       .  A
C186        H191   1.075       .  S
C187        C188   1.407       .  A
C188        C189   1.421       .  A
C188        H192   1.072       .  S
C189        C190   1.380       .  A
C189        C219   1.461       .  S
C190        H945   1.085       .  S
H193        C942   1.085   1_545  S
C194        C195   1.427       .  A
C194        C199   1.396       .  A
C195        C196   1.422       .  A
C195        H200   1.082       .  S
C196        C197   1.430       .  A
C197        C198   1.414       .  A
C197        H201   1.081       .  S
C198        C199   1.392       .  A
C198        C242   1.489       .  S
C199        H954   1.084       .  S
H202        C951   1.084   1_545  S
O203        C219   1.265       .  A
O203       Zn209   1.926       .  S
C204       C1374   1.447       .  S
C204        O217   1.268   1_566  A
C204        O972   1.266   1_556  A
O205        C218   1.278       .  A
O205       Cd212   2.109       .  S
O206        C224   1.256   1_565  A
O206       Cd215   1.950   1_565  S
O207        C221   1.289       .  A
O207       Cd211   2.108       .  S
O208        C971   1.289   1_545  A
O208       Cd211   2.100       .  S
Zn209       O220   2.013       .  S
Zn209       O222   1.912       .  S
Zn209       O214   1.885       .  S
O210        C221   1.253       .  A
O210       Cd215   1.973       .  S
Cd211       O213   2.099       .  S
Cd211       O966   1.960   1_545  S
Cd212       O216   2.083       .  S
Cd212       O225   2.109       .  S
Cd212       O214   1.988       .  S
O213        C975   1.272       .  A
O214       Cd963   1.960       .  S
O214       Cd967   1.903       .  S
Cd215       O217   2.004       .  S
Cd215       O966   1.903   1_545  S
O216        C223   1.277       .  A
C218        O222   1.259       .  A
C219        O960   1.289       .  A
O220        C956   1.266   1_554  A
C221        C253   1.466       .  S
C223        C979   1.475       .  S
C223        O965   1.272       .  A
C224        O977   1.278   1_545  A
O225        C976   1.278       .  A
O226        C242   1.283       .  A
O226       Zn232   2.018       .  S
C227        C975   1.475       .  S
C227        O240   1.282       .  A
C227        O995   1.278       .  A
O228        C241   1.279       .  A
O228       Cd235   2.087       .  S
O229        C247   1.262       .  A
O229       Cd238   1.981       .  S
O230        C244   1.272       .  A
O230       Cd234   2.032       .  S
O231        C994   1.285       .  A
O231       Cd234   2.122   1_565  S
Zn232       O243   2.017       .  S
Zn232       O245   1.960       .  S
Zn232       O237   1.853       .  S
O233        C244   1.284       .  A
O233       Cd238   2.130       .  S
Cd234       O236   1.998       .  S
Cd234       O989   1.925       .  S
Cd235       O239   2.118       .  S
Cd235       O248   2.127       .  S
Cd235       O237   2.041       .  S
O236        C998   1.238   1_545  A
O237       Cd986   1.925       .  S
O237       Cd990   1.932       .  S
Cd238       O240   2.085       .  S
Cd238       O989   1.932       .  S
O239        C246   1.264       .  A
C241        O245   1.267       .  A
C242        O983   1.285       .  A
O243        C979   1.278       .  A
C244        C258   1.485       .  S
C246       C1332   1.447       .  S
C246        O988   1.238       .  A
C247       O1000   1.288   1_545  A
O248        C999   1.288       .  A
C249        C250   1.441       .  A
C249        C254   1.373       .  A
C249        C346   1.478       .  S
C250        C251   1.420       .  A
C250        H255   1.077       .  S
C251        C252   1.416       .  A
C252        C253   1.432       .  A
C252        H256   1.078       .  S
C253        C254   1.375       .  A
C254        H257   1.086       .  S
C258        C259   1.381       .  A
C258        C263   1.431       .  A
C259        C260   1.391       .  A
C259        H264   1.086       .  S
C260        C261   1.427       .  A
C260        C369   1.482       .  S
C261        C262   1.421       .  A
C261        H265   1.083       .  S
C262        C263   1.428       .  A
C263        H266   1.083       .  S
O267        C283   1.277       .  A
O267       Zn273   1.959       .  S
C268       C2186   1.475       .  S
C268        O284   1.269   1_656  A
C268       O1785   1.267   1_556  A
O269       C1786   1.288       .  A
O269       Cd276   2.152       .  S
O270        C288   1.250       .  A
O270       Cd279   1.894       .  S
O271       C1789   1.272       .  A
O271       Cd275   2.061       .  S
O272        C283   1.272       .  A
O272       Cd275   2.030       .  S
Zn273       O284   2.021       .  S
Zn273       O286   1.783       .  S
Zn273       O278   1.887       .  S
O274        C285   1.274       .  A
O274       Cd279   1.999       .  S
Cd275       O277   2.057       .  S
Cd275       O278   1.970       .  S
Cd276       O280   2.107       .  S
Cd276       O289   2.154       .  S
Cd276      O1782   1.990       .  S
O277       C1791   1.262       .  A
O278      Cd1780   1.990   1_455  S
O278      Cd1783   1.928   1_455  S
Cd279       O281   2.062       .  S
Cd279      O1782   1.928       .  S
O280        C287   1.283       .  A
O281       C1772   1.267   1_554  A
C282        O286   1.240       .  A
C282       O1773   1.288   1_455  A
C283        C313   1.454       .  S
C285       O1775   1.272       .  A
C287       C1815   1.473       .  S
C287       O1781   1.262       .  A
C288        O289   1.288       .  A
O290        C306   1.270       .  A
O290       Zn296   1.993       .  S
C291        O307   1.271       .  A
C291        O304   1.275       .  A
O292       C1809   1.295   1_455  A
O292       Cd299   2.205       .  S
O293       C1815   1.250       .  A
O293       Cd302   1.973       .  S
O294        C308   1.275       .  A
O294       Cd298   2.058       .  S
O295       C1810   1.269       .  A
O295       Cd298   2.036   1_655  S
Zn296       O307   2.031       .  S
Zn296       O309   1.946       .  S
Zn296       O301   1.920       .  S
O297       C1812   1.279       .  A
O297       Cd302   2.109       .  S
Cd298       O300   2.041       .  S
Cd298      O1805   1.987   1_455  S
Cd299       O303   2.197       .  S
Cd299       O312   2.189       .  S
Cd299      O1805   2.010   1_455  S
O300        C310   1.271       .  A
O301       Cd302   1.978       .  S
O301      Cd1802   1.987       .  S
O301      Cd1803   2.010       .  S
Cd302       O304   2.067       .  S
O303        C310   1.299       .  A
C305        O309   1.268       .  A
C305       O1796   1.295       .  A
C306       C2148   1.475       .  S
C306       O1799   1.269       .  A
C308       O1801   1.279   1_455  A
C310        C324   1.508       .  S
C311       C1791   1.473       .  S
C311        O312   1.287       .  A
C311       O1797   1.250   1_455  A
C313        C314   1.447       .  A
C313        C318   1.379       .  A
C314        C315   1.424       .  A
C314        H319   1.081       .  S
C315        C316   1.412       .  A
C316        C317   1.417       .  A
C316        H320   1.077       .  S
C317        C318   1.364       .  A
C317        C352   1.466       .  S
C318        H321   1.086       .  S
C322        C323   1.398       .  A
C322        C327   1.413       .  A
C322        C375   1.493       .  S
C323        C324   1.413       .  A
C323        H328   1.083       .  S
C324        C325   1.446       .  A
C325        C326   1.424       .  A
C325        H329   1.082       .  S
C326        C327   1.406       .  A
C327        H330   1.080       .  S
O331        C347   1.265       .  A
O331       Zn337   1.987       .  S
C332        C374   1.462       .  S
C332        O348   1.274       .  A
C332        O345   1.268       .  A
O333        C346   1.285       .  A
O333       Cd340   2.141       .  S
O334        C352   1.251       .  A
O334       Cd343   1.910       .  S
O335        C349   1.271       .  A
O335       Cd339   2.070       .  S
O336        C347   1.283       .  A
O336       Cd339   2.046       .  S
Zn337       O348   2.039       .  S
Zn337       O350   1.885       .  S
Zn337       O342   1.907       .  S
O338        C349   1.272       .  A
O338       Cd343   2.008       .  S
Cd339       O341   2.043       .  S
Cd339       O342   1.965       .  S
Cd340       O344   2.098       .  S
Cd340       O353   2.130       .  S
Cd340       O342   1.979       .  S
O341        C351   1.262       .  A
O342       Cd343   1.899       .  S
Cd343       O345   2.009       .  S
O344        C351   1.278       .  A
C346        O350   1.248       .  A
C351        C731   1.464   1_554  S
C352        O353   1.286       .  A
O354        C370   1.285       .  A
O354       Zn360   2.020       .  S
C355        C727   1.464       .  S
C355        O371   1.280       .  A
C355        O368   1.272       .  A
O356        C369   1.284       .  A
O356       Cd363   2.106       .  S
O357        C375   1.264       .  A
O357       Cd366   1.976       .  S
O358        C372   1.274       .  A
O358       Cd362   2.077       .  S
O359        C370   1.285       .  A
O359       Cd362   2.149       .  S
Zn360       O371   2.031       .  S
Zn360       O373   1.975       .  S
Zn360       O365   1.888       .  S
O361        C372   1.279       .  A
O361       Cd366   2.093       .  S
Cd362       O364   2.005       .  S
Cd362       O365   1.953       .  S
Cd363       O367   2.138       .  S
Cd363       O376   2.175       .  S
Cd363       O365   2.055       .  S
O364        C374   1.245       .  A
O365       Cd366   1.922       .  S
Cd366       O368   2.020       .  S
O367        C374   1.266       .  A
C369        O373   1.264       .  A
C375        O376   1.289       .  A
C377        C378   1.534       .  S
C377        C383   1.554       .  S
C377        C381   1.538       .  S
C377        C463   1.598       .  S
C379        C380   1.579       .  S
C379        C702   1.547   1_554  S
C380        C382   1.579       .  S
C380        H386   1.109       .  S
C382        C572   1.537   1_554  S
C383        H388   1.067       .  S
C383        C384   1.382       .  D
C384        C429   1.533       .  S
C389        C390   1.530       .  S
C389        C395   1.546       .  S
C389        C393   1.546       .  S
C389        C474   1.564       .  S
C390        H397   1.079       .  S
C390        C391   1.373       .  D
C391        C392   1.590       .  S
C391        C691   1.558       .  S
C392        C396   1.561       .  S
C392        C394   1.582       .  S
C392        H398   1.097       .  S
C393        H399   1.085       .  S
C393        C394   1.363       .  D
C394        C563   1.536       .  S
C395        H400   1.086       .  S
C395        C396   1.378       .  D
C396        C436   1.514       .  S
C401        C407   1.553   1_554  S
C401        C510   1.584   1_554  S
C402        H409   1.079       .  S
C402        C403   1.375       .  D
C403        C404   1.583       .  S
C403        C445   1.557       .  S
C404        C406   1.598       .  S
C404        H410   1.106       .  S
C405        H411   1.081       .  S
C405        C406   1.367       .  D
C406        C483   1.554       .  S
C407        H412   1.086       .  S
C407        C408   1.383   1_556  D
C408        C638   1.537   1_554  S
C413        C414   1.538       .  S
C413        C419   1.558       .  S
C413        C417   1.529       .  S
C413        C501   1.584       .  S
C414        H421   1.082       .  S
C414        C415   1.379       .  D
C415        C416   1.581       .  S
C415        C454   1.542       .  S
C416        C420   1.568       .  S
C416        C418   1.591       .  S
C416        H422   1.110       .  S
C417        H423   1.085       .  S
C417        C418   1.367       .  D
C418        C492   1.529       .  S
C419        H424   1.073       .  S
C419        C420   1.382       .  D
C420        C627   1.550       .  S
C425        C426   1.373       .  A
C425        C430   1.434       .  A
C425        C658   1.467       .  S
C426        C427   1.384       .  A
C426       H1935   1.085       .  S
C427        C428   1.436       .  A
C427        C533   1.465       .  S
C428        C429   1.414       .  A
C428        H432   1.076       .  S
C429        C430   1.400       .  A
C430        H433   1.083       .  S
H431       C1930   1.085       .  S
C434        C435   1.413       .  A
C434        C439   1.395       .  A
C434        C684   1.476       .  S
C435        C436   1.415       .  A
C435        H440   1.084       .  S
C436        C437   1.425       .  A
C437        C438   1.423       .  A
C437        H441   1.083       .  S
C438        C439   1.395       .  A
C438        C556   1.491       .  S
C439       H1946   1.086   1_455  S
H442       C1943   1.086       .  S
C443        C444   1.414       .  A
C443        C448   1.366       .  A
C443        C664   1.473       .  S
C444        C445   1.406       .  A
C444        H449   1.074       .  S
C445        C446   1.425       .  A
C446        C447   1.447       .  A
C446        H450   1.082       .  S
C447        C448   1.391       .  A
C447        C723   1.464       .  S
C448        H451   1.085       .  S
C452        C453   1.410       .  A
C452        C457   1.379       .  A
C452        C667   1.475       .  S
C453        C454   1.425       .  A
C453        H458   1.083       .  S
C454        C455   1.435       .  A
C455        C456   1.439       .  A
C455        H459   1.082       .  S
C456        C457   1.394       .  A
C456        C746   1.493       .  S
C457        H460   1.087       .  S
C461        C462   1.418       .  A
C461        C466   1.374       .  A
C461        C594   1.459       .  S
C462        C463   1.410       .  A
C462        H467   1.065       .  S
C463        C464   1.433       .  A
C464        C465   1.437       .  A
C464        H468   1.076       .  S
C465        C466   1.379       .  A
C465        C725   1.470       .  S
C466        H469   1.086       .  S
C470        C471   1.394       .  A
C470        C475   1.423       .  A
C470        C748   1.485       .  S
C471        C472   1.396       .  A
C471        H476   1.084       .  S
C472        C473   1.410       .  A
C472        C617   1.472       .  S
C473        C474   1.408       .  A
C473        H477   1.083       .  S
C474        C475   1.428       .  A
C475        H478   1.080       .  S
C479        C480   1.377       .  A
C479        C484   1.432       .  A
C479        C600   1.460       .  S
C480        C481   1.374       .  A
C480       H1237   1.086   1_545  S
C481        C482   1.431       .  A
C481        C531   1.471       .  S
C482        C483   1.430       .  A
C482        H486   1.077       .  S
C483        C484   1.404       .  A
C484        H487   1.071       .  S
H485       C1232   1.086       .  S
C488        C489   1.396       .  A
C488        C493   1.426       .  A
C488        C623   1.475       .  S
C489        C490   1.389       .  A
C489       H1246   1.084       .  S
C490        C491   1.420       .  A
C490        C554   1.479       .  S
C491        C492   1.426       .  A
C491        H495   1.082       .  S
C492        C493   1.404       .  A
C493        H496   1.083       .  S
H494       C1241   1.084       .  S
C497        C498   1.371       .  A
C497        C502   1.421       .  A
C497        C530   1.456       .  S
C498        C499   1.376       .  A
C498       H2007   1.086       .  S
C499        C500   1.436       .  A
C499        C661   1.463       .  S
C500        C501   1.432       .  A
C500        H504   1.078       .  S
C501        C502   1.404       .  A
C502        H505   1.077       .  S
H503       C2002   1.086   1_455  S
C506        C507   1.410       .  A
C506        C511   1.428       .  A
C506        C553   1.500       .  S
C507        C508   1.413       .  A
C507       H2016   1.083       .  S
C508        C509   1.434       .  A
C508        C681   1.509       .  S
C509        C510   1.417       .  A
C509        H513   1.080       .  S
C510        C511   1.404       .  A
C511        H514   1.079       .  S
H512       C2011   1.083   1_455  S
O515        C531   1.271       .  A
O515       Zn521   1.954       .  S
C516       C2814   1.461       .  S
C516       O1284   1.273       .  A
C516       O2033   1.269       .  A
O517       C2034   1.282   1_455  A
O517       Cd524   2.102       .  S
O518        C536   1.251       .  A
O518       Cd527   1.961       .  S
O519       C2037   1.284       .  A
O519       Cd523   2.059       .  S
O520       C1283   1.274       .  A
O520       Cd523   2.070       .  S
Zn521       O532   1.991       .  S
Zn521       O534   1.853       .  S
Zn521       O526   1.850   1_545  S
O522        C533   1.262       .  A
O522       Cd527   2.021       .  S
Cd523       O525   2.058       .  S
Cd523      O1278   1.964       .  S
Cd524       O528   2.075   1_455  S
Cd524       O537   2.121       .  S
Cd524      O2030   1.990   1_545  S
O525       C2791   1.264       .  A
O526      Cd1275   1.964       .  S
O526      Cd2028   1.990   1_565  S
O526      Cd2783   1.958       .  S
Cd527       O529   2.059       .  S
Cd527      O2782   1.957       .  S
O528        C535   1.276   1_545  A
O529       C2020   1.269       .  A
C530       O2021   1.282       .  A
C530        O534   1.253       .  A
C531       O1272   1.274   1_545  A
O532       C1268   1.273       .  A
C533       O2023   1.284   1_455  A
C535       C2419   1.460       .  S
C535       O2781   1.264       .  A
C536        C561   1.468       .  S
C536       O1289   1.279       .  A
O537       C1288   1.279   1_545  A
O538        C554   1.277       .  A
O538       Zn544   2.048       .  S
C539       C2415   1.460   1_556  S
C539       O1307   1.271       .  A
C539       O2056   1.281       .  A
O540       C2057   1.289   1_455  A
O540       Cd547   2.192       .  S
O541        C559   1.270       .  A
O541       Cd550   2.056       .  S
O542       C2060   1.284       .  A
O542       Cd546   2.133       .  S
O543       C1306   1.270       .  A
O543       Cd546   2.055       .  S
Zn544       O555   1.956   1_545  S
Zn544       O557   1.894       .  S
Zn544       O549   1.864   1_545  S
O545        C556   1.286       .  A
O545       Cd550   2.087       .  S
Cd546       O548   2.007       .  S
Cd546      O1301   1.946       .  S
Cd547       O551   2.135       .  S
Cd547       O560   2.127       .  S
Cd547      O2053   2.063   1_445  S
O548       C2814   1.244       .  A
O549      Cd1298   1.946       .  S
O549      Cd2051   2.063   1_565  S
O549      Cd2806   1.955       .  S
Cd550       O552   2.086   1_455  S
Cd550      O2805   1.955   1_455  S
O551        C558   1.268       .  A
O552       C2043   1.281       .  A
C553       O2044   1.289       .  A
C553        O557   1.258       .  A
C554       O1295   1.270       .  A
O555       C1291   1.271       .  A
C556       O2046   1.284       .  A
C558       C2772   1.461       .  S
C558       O2804   1.244       .  A
C559        C570   1.494       .  S
C559       O1312   1.288       .  A
O560       C1311   1.288   1_545  A
C561        C562   1.435       .  A
C561        C566   1.381       .  A
C562        C563   1.410       .  A
C562        H567   1.075       .  S
C563        C564   1.407       .  A
C564        C565   1.421       .  A
C564        H568   1.072       .  S
C565        C566   1.380       .  A
C565        C595   1.461       .  S
C566       H1321   1.085       .  S
H569       C1318   1.085   1_545  S
C570        C571   1.427       .  A
C570        C575   1.396       .  A
C571        C572   1.422       .  A
C571        H576   1.082       .  S
C572        C573   1.430       .  A
C573        C574   1.414       .  A
C573        H577   1.081       .  S
C574        C575   1.392       .  A
C574        C618   1.489       .  S
C575       H1330   1.084       .  S
H578       C1327   1.084   1_545  S
O579        C595   1.265       .  A
O579       Zn585   1.926       .  S
C580        C998   1.447       .  S
C580       O1348   1.266       .  A
C580        O593   1.268   1_565  A
O581        C594   1.278       .  A
O581       Cd588   2.109       .  S
O582        C600   1.256   1_565  A
O582       Cd591   1.950   1_565  S
O583        C597   1.289       .  A
O583       Cd587   2.108       .  S
O584       C1347   1.289   1_545  A
O584       Cd587   2.100       .  S
Zn585       O596   2.013       .  S
Zn585       O598   1.912       .  S
Zn585       O590   1.885       .  S
O586        C597   1.253       .  A
O586       Cd591   1.973       .  S
Cd587       O589   2.099       .  S
Cd587      O1342   1.960   1_545  S
Cd588       O592   2.083       .  S
Cd588       O601   2.109       .  S
Cd588       O590   1.988       .  S
O589       C1351   1.272       .  A
O590      Cd1339   1.960       .  S
O590      Cd1343   1.903       .  S
Cd591       O593   2.004       .  S
Cd591      O1342   1.903   1_545  S
O592        C599   1.277       .  A
C594        O598   1.259       .  A
C595       O1336   1.289       .  A
O596       C1332   1.266       .  A
C597        C629   1.466       .  S
C599       C1355   1.475       .  S
C599       O1341   1.272       .  A
C600       O1353   1.278   1_545  A
O601       C1352   1.278       .  A
O602        C618   1.283       .  A
O602       Zn608   2.018       .  S
C603       C1351   1.475       .  S
C603       O1371   1.278       .  A
C603        O616   1.282       .  A
O604        C617   1.279       .  A
O604       Cd611   2.087       .  S
O605        C623   1.262       .  A
O605       Cd614   1.981       .  S
O606        C620   1.272       .  A
O606       Cd610   2.032       .  S
O607       C1370   1.285       .  A
O607       Cd610   2.122   1_565  S
Zn608       O619   2.017       .  S
Zn608       O621   1.960       .  S
Zn608       O613   1.853       .  S
O609        C620   1.284       .  A
O609       Cd614   2.130       .  S
Cd610       O612   1.998       .  S
Cd610      O1365   1.925       .  S
Cd611       O615   2.118       .  S
Cd611       O624   2.127       .  S
Cd611       O613   2.041       .  S
O612       C1374   1.238   1_545  A
O613      Cd1362   1.925       .  S
O613      Cd1366   1.932       .  S
Cd614       O616   2.085       .  S
Cd614      O1365   1.932       .  S
O615        C622   1.264       .  A
C617        O621   1.267       .  A
C618       O1359   1.285       .  A
O619       C1355   1.278       .  A
C620        C634   1.485       .  S
C622        C956   1.447       .  S
C622       O1364   1.238       .  A
C623       O1376   1.288   1_545  A
O624       C1375   1.288       .  A
C625        C626   1.441       .  A
C625        C630   1.373       .  A
C625        C722   1.478       .  S
C626        C627   1.420       .  A
C626        H631   1.077       .  S
C627        C628   1.416       .  A
C628        C629   1.432       .  A
C628        H632   1.078       .  S
C629        C630   1.375       .  A
C630        H633   1.086       .  S
C634        C635   1.381       .  A
C634        C639   1.431       .  A
C635        C636   1.391       .  A
C635        H640   1.086       .  S
C636        C637   1.427       .  A
C636        C745   1.482       .  S
C637        C638   1.421       .  A
C637        H641   1.083       .  S
C638        C639   1.428       .  A
C639        H642   1.083       .  S
O643        C659   1.277       .  A
O643       Zn649   1.959       .  S
C644       C1810   1.475       .  S
C644        O660   1.269   1_655  A
C644       O2161   1.267       .  A
O645       C2162   1.288       .  A
O645       Cd652   2.152       .  S
O646        C664   1.250       .  A
O646       Cd655   1.894       .  S
O647       C2165   1.272       .  A
O647       Cd651   2.061       .  S
O648        C659   1.272       .  A
O648       Cd651   2.030       .  S
Zn649       O660   2.021       .  S
Zn649       O662   1.783       .  S
Zn649       O654   1.887       .  S
O650        C661   1.274       .  A
O650       Cd655   1.999       .  S
Cd651       O653   2.057       .  S
Cd651       O654   1.970       .  S
Cd652       O656   2.107       .  S
Cd652       O665   2.154       .  S
Cd652      O2158   1.990       .  S
O653       C2167   1.262       .  A
O654      Cd2156   1.990   1_455  S
O654      Cd2159   1.928   1_455  S
Cd655       O657   2.062       .  S
Cd655      O2158   1.928       .  S
O656        C663   1.283       .  A
O657       C2148   1.267       .  A
C658       O2149   1.288   1_455  A
C658        O662   1.240       .  A
C659        C689   1.454       .  S
C661       O2151   1.272       .  A
C663       C2191   1.473       .  S
C663       O2157   1.262       .  A
C664        O665   1.288       .  A
O666        C682   1.270       .  A
O666       Zn672   1.993       .  S
C667        O683   1.271       .  A
C667        O680   1.275       .  A
O668       C2185   1.295   1_455  A
O668       Cd675   2.205       .  S
O669       C2191   1.250       .  A
O669       Cd678   1.973       .  S
O670        C684   1.275       .  A
O670       Cd674   2.058       .  S
O671       C2186   1.269       .  A
O671       Cd674   2.036   1_655  S
Zn672       O683   2.031       .  S
Zn672       O685   1.946       .  S
Zn672       O677   1.920       .  S
O673       C2188   1.279       .  A
O673       Cd678   2.109       .  S
Cd674       O676   2.041       .  S
Cd674      O2181   1.987   1_455  S
Cd675       O679   2.197       .  S
Cd675       O688   2.189       .  S
Cd675      O2181   2.010   1_455  S
O676        C686   1.271       .  A
O677      Cd2178   1.987       .  S
O677      Cd2179   2.010       .  S
O677       Cd678   1.978       .  S
Cd678       O680   2.067       .  S
O679        C686   1.299       .  A
C681       O2172   1.295       .  A
C681        O685   1.268       .  A
C682       C1772   1.475       .  S
C682       O2175   1.269       .  A
C684       O2177   1.279   1_455  A
C686        C700   1.508       .  S
C687       C2167   1.473       .  S
C687       O2173   1.250   1_455  A
C687        O688   1.287       .  A
C689        C690   1.447       .  A
C689        C694   1.379       .  A
C690        C691   1.424       .  A
C690        H695   1.081       .  S
C691        C692   1.412       .  A
C692        C693   1.417       .  A
C692        H696   1.077       .  S
C693        C694   1.364       .  A
C693        C728   1.466       .  S
C694        H697   1.086       .  S
C698        C699   1.398       .  A
C698        C703   1.413       .  A
C698        C751   1.493       .  S
C699        C700   1.413       .  A
C699        H704   1.083       .  S
C700        C701   1.446       .  A
C701        C702   1.424       .  A
C701        H705   1.082       .  S
C702        C703   1.406       .  A
C703        H706   1.080       .  S
O707        C723   1.265       .  A
O707       Zn713   1.987       .  S
C708        C750   1.462       .  S
C708        O724   1.274       .  A
C708        O721   1.268       .  A
O709        C722   1.285       .  A
O709       Cd716   2.141       .  S
O710        C728   1.251       .  A
O710       Cd719   1.910       .  S
O711        C725   1.271       .  A
O711       Cd715   2.070       .  S
O712        C723   1.283       .  A
O712       Cd715   2.046       .  S
Zn713       O724   2.039       .  S
Zn713       O726   1.885       .  S
Zn713       O718   1.907       .  S
O714        C725   1.272       .  A
O714       Cd719   2.008       .  S
Cd715       O717   2.043       .  S
Cd715       O718   1.965       .  S
Cd716       O720   2.098       .  S
Cd716       O729   2.130       .  S
Cd716       O718   1.979       .  S
O717        C727   1.262       .  A
O718       Cd719   1.899       .  S
Cd719       O721   2.009       .  S
O720        C727   1.278       .  A
C722        O726   1.248       .  A
C728        O729   1.286       .  A
O730        C746   1.285       .  A
O730       Zn736   2.020       .  S
C731        O747   1.280       .  A
C731        O744   1.272       .  A
O732        C745   1.284       .  A
O732       Cd739   2.106       .  S
O733        C751   1.264       .  A
O733       Cd742   1.976       .  S
O734        C748   1.274       .  A
O734       Cd738   2.077       .  S
O735        C746   1.285       .  A
O735       Cd738   2.149       .  S
Zn736       O747   2.031       .  S
Zn736       O749   1.975       .  S
Zn736       O741   1.888       .  S
O737        C748   1.279       .  A
O737       Cd742   2.093       .  S
Cd738       O740   2.005       .  S
Cd738       O741   1.953       .  S
Cd739       O743   2.138       .  S
Cd739       O752   2.175       .  S
Cd739       O741   2.055       .  S
O740        C750   1.245       .  A
O741       Cd742   1.922       .  S
Cd742       O744   2.020       .  S
O743        C750   1.266       .  A
C745        O749   1.264       .  A
C751        O752   1.289       .  A
C753        C754   1.534       .  S
C753        C759   1.554       .  S
C753        C757   1.539       .  S
C753        C839   1.598       .  S
C754       H1137   1.080       .  S
C754       C1131   1.382       .  D
C755        C756   1.579       .  S
C755       C1130   1.382       .  D
C755       C1078   1.546       .  S
C756       C1136   1.556       .  S
C756        C758   1.579       .  S
C756        H762   1.109       .  S
C757       H1139   1.080       .  S
C757       C1134   1.374       .  D
C758       C1133   1.374       .  D
C758        C948   1.537       .  S
C759        H764   1.067       .  S
C759        C760   1.382       .  D
C760       C1132   1.556       .  S
C760        C805   1.532       .  S
H761       C1130   1.080       .  S
H763       C1133   1.080       .  S
C765        C766   1.530       .  S
C765        C771   1.546       .  S
C765        C769   1.546       .  S
C765        C850   1.564       .  S
C766        H773   1.079       .  S
C766        C767   1.373       .  D
C767        C768   1.590       .  S
C767       C1067   1.558       .  S
C768        C772   1.561       .  S
C768        C770   1.583       .  S
C768        H774   1.097       .  S
C769        H775   1.085       .  S
C769        C770   1.362       .  D
C770        C939   1.537       .  S
C771        H776   1.086       .  S
C771        C772   1.378       .  D
C772        C812   1.514       .  S
C777       C1154   1.528       .  S
C777        C783   1.553       .  S
C777       C1157   1.549       .  S
C777        C886   1.584       .  S
C778       C1153   1.528       .  S
C778        H785   1.079       .  S
C778        C779   1.375       .  D
C779        C780   1.583       .  S
C779        C821   1.557       .  S
C780       C1160   1.576       .  S
C780        C782   1.598       .  S
C780        H786   1.106       .  S
C781       C1153   1.549       .  S
C781        H787   1.081       .  S
C781        C782   1.367       .  D
C782        C859   1.554       .  S
C783        H788   1.086       .  S
C783        C784   1.383       .  D
C784       C1156   1.576       .  S
C784       C1014   1.537       .  S
C789        C790   1.538       .  S
C789        C795   1.558       .  S
C789        C793   1.529       .  S
C789        C877   1.584       .  S
C790        H797   1.082       .  S
C790        C791   1.379       .  D
C791        C792   1.581       .  S
C791        C830   1.542       .  S
C792        C796   1.569       .  S
C792        C794   1.590       .  S
C792        H798   1.110       .  S
C793        H799   1.084       .  S
C793        C794   1.367       .  D
C794        C868   1.529       .  S
C795        H800   1.073       .  S
C795        C796   1.382       .  D
C796       C1003   1.550       .  S
C801        C802   1.373       .  A
C801        C806   1.434       .  A
C801       C1034   1.467       .  S
C802        C803   1.384       .  A
C802       H2311   1.085       .  S
C803        C804   1.435       .  A
C803        C909   1.465       .  S
C804        C805   1.414       .  A
C804        H808   1.076       .  S
C805        C806   1.400       .  A
C806        H809   1.083       .  S
H807       C2306   1.085       .  S
C810        C811   1.413       .  A
C810        C815   1.395       .  A
C810       C1060   1.476       .  S
C811        C812   1.415       .  A
C811        H816   1.084       .  S
C812        C813   1.425       .  A
C813        C814   1.423       .  A
C813        H817   1.083       .  S
C814        C815   1.395       .  A
C814        C932   1.491       .  S
C815       H2322   1.086   1_455  S
H818       C2319   1.086       .  S
C819        C820   1.414       .  A
C819        C824   1.366       .  A
C819       C1040   1.473       .  S
C820        C821   1.406       .  A
C820        H825   1.074       .  S
C821        C822   1.425       .  A
C822        C823   1.447       .  A
C822        H826   1.082       .  S
C823        C824   1.391       .  A
C823       C1099   1.464       .  S
C824        H827   1.085       .  S
C828        C829   1.410       .  A
C828        C833   1.379       .  A
C828       C1043   1.475       .  S
C829        C830   1.425       .  A
C829        H834   1.083       .  S
C830        C831   1.435       .  A
C831        C832   1.439       .  A
C831        H835   1.082       .  S
C832        C833   1.394       .  A
C832       C1122   1.493       .  S
C833        H836   1.087       .  S
C837        C838   1.417       .  A
C837        C842   1.374       .  A
C837        C970   1.458       .  S
C838        C839   1.410       .  A
C838        H843   1.065       .  S
C839        C840   1.433       .  A
C840        C841   1.437       .  A
C840        H844   1.076       .  S
C841        C842   1.379       .  A
C841       C1101   1.470       .  S
C842        H845   1.086       .  S
C846        C847   1.394       .  A
C846        C851   1.423       .  A
C846       C1124   1.485       .  S
C847        C848   1.396       .  A
C847        H852   1.084       .  S
C848        C849   1.410       .  A
C848        C993   1.472       .  S
C849        C850   1.408       .  A
C849        H853   1.083       .  S
C850        C851   1.428       .  A
C851        H854   1.080       .  S
C855        C856   1.377       .  A
C855        C860   1.432       .  A
C855        C976   1.460       .  S
C856        C857   1.375       .  A
C857        C858   1.431       .  A
C857        C907   1.470       .  S
C858        C859   1.430       .  A
C858        H862   1.077       .  S
C859        C860   1.404       .  A
C860        H863   1.071       .  S
C864        C865   1.396       .  A
C864        C869   1.426       .  A
C864        C999   1.475       .  S
C865        C866   1.389       .  A
C866        C867   1.420       .  A
C866        C930   1.479       .  S
C867        C868   1.426       .  A
C867        H871   1.082       .  S
C868        C869   1.404       .  A
C869        H872   1.083       .  S
C873        C874   1.371       .  A
C873        C878   1.421       .  A
C873        C906   1.456       .  S
C874        C875   1.376       .  A
C874       H2383   1.086       .  S
C875        C876   1.436       .  A
C875       C1037   1.463       .  S
C876        C877   1.432       .  A
C876        H880   1.078       .  S
C877        C878   1.404       .  A
C878        H881   1.077       .  S
H879       C2378   1.086   1_455  S
C882        C883   1.410       .  A
C882        C887   1.428       .  A
C882        C929   1.500       .  S
C883        C884   1.413       .  A
C883       H2392   1.083       .  S
C884        C885   1.434       .  A
C884       C1057   1.509       .  S
C885        C886   1.417       .  A
C885        H889   1.080       .  S
C886        C887   1.404       .  A
C887        H890   1.079       .  S
H888       C2387   1.083   1_455  S
O891        C907   1.271       .  A
O891       Zn897   1.954       .  S
C892       C1686   1.461       .  S
C892       O2409   1.269   1_545  A
O893       C2410   1.282   1_455  A
O893       Cd900   2.102       .  S
O894        C912   1.251   1_545  A
O894       Cd903   1.961   1_545  S
O895       C2413   1.284       .  A
O895       Cd899   2.058       .  S
O896       Cd899   2.070       .  S
Zn897       O908   1.991       .  S
Zn897       O910   1.853       .  S
Zn897       O902   1.850       .  S
O898        C909   1.262       .  A
O898       Cd903   2.021       .  S
Cd899       O901   2.058       .  S
Cd900       O904   2.075   1_455  S
Cd900       O913   2.121       .  S
Cd900      O2406   1.990       .  S
O901       C1663   1.264       .  A
O902      Cd2404   1.990       .  S
O902      Cd1655   1.957       .  S
Cd903       O905   2.059       .  S
Cd903      O1654   1.958       .  S
O904        C911   1.276       .  A
O905       C2396   1.269   1_565  A
C906       O2397   1.282       .  A
C906        O910   1.253       .  A
C909       O2399   1.284   1_455  A
C911       C2043   1.460   1_554  S
C911       O1653   1.264       .  A
C912        C937   1.468       .  S
O914        C930   1.277       .  A
O914       Zn920   2.048       .  S
C915       C2039   1.460       .  S
C915       O2432   1.281       .  A
O916       C2433   1.289   1_455  A
O916       Cd923   2.192       .  S
O917        C935   1.270       .  A
O917       Cd926   2.056       .  S
O918       C2436   1.284       .  A
O918       Cd922   2.133       .  S
O919       Cd922   2.055   1_545  S
Zn920       O931   1.955       .  S
Zn920       O933   1.894       .  S
Zn920       O925   1.864       .  S
O921        C932   1.286       .  A
O921       Cd926   2.087       .  S
Cd922       O924   2.007   1_565  S
Cd923       O927   2.135       .  S
Cd923       O936   2.128       .  S
Cd923      O2429   2.062   1_455  S
O924       C1686   1.244       .  A
O925      Cd2427   2.062       .  S
O925      Cd1678   1.955       .  S
Cd926       O928   2.086   1_455  S
Cd926      O1677   1.955   1_455  S
O927        C934   1.268       .  A
O928       C2419   1.281       .  A
C929       O2420   1.289       .  A
C929        O933   1.258       .  A
C932       O2422   1.284       .  A
C934       C1644   1.461       .  S
C934       O1676   1.244       .  A
C935        C946   1.494       .  S
C937        C938   1.435       .  A
C937        C942   1.381       .  A
C938        C939   1.410       .  A
C938        H943   1.075       .  S
C939        C940   1.408       .  A
C940        C941   1.421       .  A
C940        H944   1.072       .  S
C941        C942   1.380       .  A
C941        C971   1.461       .  S
C946        C947   1.427       .  A
C946        C951   1.396       .  A
C947        C948   1.422       .  A
C947        H952   1.082       .  S
C948        C949   1.430       .  A
C949        C950   1.414       .  A
C949        H953   1.081       .  S
C950        C951   1.392       .  A
C950        C994   1.488       .  S
O955        C971   1.265       .  A
O955       Zn961   1.927       .  S
C956        O969   1.268   1_556  A
O957        C970   1.278       .  A
O957       Cd964   2.108       .  S
O958        C976   1.256       .  A
O958       Cd967   1.950       .  S
O959        C973   1.289       .  A
O959       Cd963   2.108       .  S
O960       Cd963   2.100       .  S
Zn961       O972   2.014       .  S
Zn961       O974   1.912       .  S
Zn961       O966   1.885       .  S
O962        C973   1.253       .  A
O962       Cd967   1.973       .  S
Cd963       O965   2.099       .  S
Cd964       O968   2.083   1_565  S
Cd964       O977   2.108       .  S
Cd964       O966   1.988       .  S
Cd967       O969   2.004       .  S
O968        C975   1.277       .  A
C970        O974   1.259       .  A
C973       C1005   1.466       .  S
O978        C994   1.283       .  A
O978       Zn984   2.019       .  S
C979        O992   1.282       .  A
O980        C993   1.279       .  A
O980       Cd987   2.087       .  S
O981        C999   1.262       .  A
O981       Cd990   1.981       .  S
O982        C996   1.272       .  A
O982       Cd986   2.033       .  S
O983       Cd986   2.122       .  S
Zn984       O995   2.017   1_565  S
Zn984       O997   1.960       .  S
Zn984       O989   1.853   1_565  S
O985        C996   1.284       .  A
O985       Cd990   2.130       .  S
Cd986       O988   1.998       .  S
Cd987       O991   2.118       .  S
Cd987      O1000   2.127       .  S
Cd987       O989   2.041   1_565  S
Cd990       O992   2.085       .  S
O991        C998   1.264       .  A
C993        O997   1.267       .  A
C996       C1010   1.485       .  S
C1001      C1002   1.441       .  A
C1001      C1006   1.373       .  A
C1001      C1098   1.478       .  S
C1002      C1003   1.420       .  A
C1002      H1007   1.077       .  S
C1003      C1004   1.416       .  A
C1004      C1005   1.432       .  A
C1004      H1008   1.078       .  S
C1005      C1006   1.375       .  A
C1006      H1009   1.086       .  S
C1010      C1011   1.381       .  A
C1010      C1015   1.431       .  A
C1011      C1012   1.391       .  A
C1011      H1016   1.086       .  S
C1012      C1013   1.426       .  A
C1012      C1121   1.482       .  S
C1013      C1014   1.421       .  A
C1013      H1017   1.083       .  S
C1014      C1015   1.428       .  A
C1015      H1018   1.083       .  S
O1019      C1035   1.277       .  A
O1019     Zn1025   1.959       .  S
C1020      C2938   1.475       .  S
C1020      O1036   1.269   1_656  A
C1020      O2537   1.267   1_556  A
O1021      C2538   1.288       .  A
O1021     Cd1028   2.152       .  S
O1022      C1040   1.250       .  A
O1022     Cd1031   1.894       .  S
O1023      C2541   1.272       .  A
O1023     Cd1027   2.061       .  S
O1024      C1035   1.272       .  A
O1024     Cd1027   2.030       .  S
Zn1025     O1036   2.021       .  S
Zn1025     O1038   1.783       .  S
Zn1025     O1030   1.886       .  S
O1026      C1037   1.274       .  A
O1026     Cd1031   1.999       .  S
Cd1027     O1029   2.057       .  S
Cd1027     O1030   1.970       .  S
Cd1028     O1032   2.107       .  S
Cd1028     O1041   2.154       .  S
Cd1028     O2534   1.990       .  S
O1029      C2543   1.262       .  A
O1030     Cd2532   1.990   1_455  S
O1030     Cd2535   1.928   1_455  S
Cd1031     O1033   2.062       .  S
Cd1031     O2534   1.928       .  S
O1032      C1039   1.283       .  A
O1033      C2524   1.267   1_554  A
C1034      O2525   1.288   1_455  A
C1034      O1038   1.240       .  A
C1035      C1065   1.454       .  S
C1037      O2527   1.272       .  A
C1039      C2567   1.473       .  S
C1039      O2533   1.262       .  A
C1040      O1041   1.288       .  A
O1042      C1058   1.270       .  A
O1042     Zn1048   1.993       .  S
C1043      O1059   1.271       .  A
C1043      O1056   1.276       .  A
O1044      C2561   1.295   1_455  A
O1044     Cd1051   2.206       .  S
O1045      C2567   1.250       .  A
O1045     Cd1054   1.972       .  S
O1046      C1060   1.275       .  A
O1046     Cd1050   2.058       .  S
O1047      C2562   1.269       .  A
O1047     Cd1050   2.036   1_655  S
Zn1048     O1059   2.032       .  S
Zn1048     O1061   1.947       .  S
Zn1048     O1053   1.920       .  S
O1049      C2564   1.279       .  A
O1049     Cd1054   2.109       .  S
Cd1050     O1052   2.041       .  S
Cd1050     O2557   1.987   1_455  S
Cd1051     O1055   2.198       .  S
Cd1051     O1064   2.189       .  S
Cd1051     O2557   2.008   1_455  S
O1052      C1062   1.271       .  A
O1053     Cd2554   1.987       .  S
O1053     Cd2555   2.008       .  S
O1053     Cd1054   1.978       .  S
Cd1054     O1056   2.067       .  S
O1055      C1062   1.299       .  A
C1057      O2548   1.295       .  A
C1057      O1061   1.268       .  A
C1058      C2900   1.475       .  S
C1058      O2551   1.269       .  A
C1060      O2553   1.279   1_455  A
C1062      C1076   1.508       .  S
C1063      C2543   1.473       .  S
C1063      O2549   1.250   1_455  A
C1063      O1064   1.287       .  A
C1065      C1066   1.447       .  A
C1065      C1070   1.379       .  A
C1066      C1067   1.424       .  A
C1066      H1071   1.081       .  S
C1067      C1068   1.412       .  A
C1068      C1069   1.417       .  A
C1068      H1072   1.077       .  S
C1069      C1070   1.364       .  A
C1069      C1104   1.466       .  S
C1070      H1073   1.086       .  S
C1074      C1075   1.398       .  A
C1074      C1079   1.413       .  A
C1074      C1127   1.493       .  S
C1075      C1076   1.413       .  A
C1075      H1080   1.083       .  S
C1076      C1077   1.446       .  A
C1077      C1078   1.424       .  A
C1077      H1081   1.082       .  S
C1078      C1079   1.406       .  A
C1079      H1082   1.080       .  S
O1083      C1099   1.265       .  A
O1083     Zn1089   1.987       .  S
C1084      C1126   1.461       .  S
C1084      O1100   1.274       .  A
C1084      O1097   1.268       .  A
O1085      C1098   1.285       .  A
O1085     Cd1092   2.141       .  S
O1086      C1104   1.251       .  A
O1086     Cd1095   1.910       .  S
O1087      C1101   1.271       .  A
O1087     Cd1091   2.069       .  S
O1088      C1099   1.283       .  A
O1088     Cd1091   2.046       .  S
Zn1089     O1100   2.039       .  S
Zn1089     O1102   1.885       .  S
Zn1089     O1094   1.907       .  S
O1090      C1101   1.271       .  A
O1090     Cd1095   2.008       .  S
Cd1091     O1093   2.043       .  S
Cd1091     O1094   1.965       .  S
Cd1092     O1096   2.099       .  S
Cd1092     O1105   2.130       .  S
Cd1092     O1094   1.980       .  S
O1093      C1103   1.262       .  A
O1094     Cd1095   1.899       .  S
Cd1095     O1097   2.009       .  S
O1096      C1103   1.278       .  A
C1098      O1102   1.249       .  A
C1103      C1483   1.464   1_554  S
C1104      O1105   1.286       .  A
O1106      C1122   1.285       .  A
O1106     Zn1112   2.019       .  S
C1107      C1479   1.464       .  S
C1107      O1123   1.280       .  A
C1107      O1120   1.272       .  A
O1108      C1121   1.284       .  A
O1108     Cd1115   2.105       .  S
O1109      C1127   1.264       .  A
O1109     Cd1118   1.976       .  S
O1110      C1124   1.274       .  A
O1110     Cd1114   2.077       .  S
O1111      C1122   1.285       .  A
O1111     Cd1114   2.150       .  S
Zn1112     O1123   2.031       .  S
Zn1112     O1125   1.975       .  S
Zn1112     O1117   1.888       .  S
O1113      C1124   1.279       .  A
O1113     Cd1118   2.093       .  S
Cd1114     O1116   2.005       .  S
Cd1114     O1117   1.953       .  S
Cd1115     O1119   2.138       .  S
Cd1115     O1128   2.175       .  S
Cd1115     O1117   2.055       .  S
O1116      C1126   1.245       .  A
O1117     Cd1118   1.921       .  S
Cd1118     O1120   2.020       .  S
O1119      C1126   1.266       .  A
C1121      O1125   1.264       .  A
C1127      O1128   1.289       .  A
C1129      C1130   1.534       .  S
C1129      C1135   1.554       .  S
C1129      C1133   1.539       .  S
C1129      C1215   1.598       .  S
C1131      C1132   1.579       .  S
C1131      C1454   1.546   1_554  S
C1132      C1134   1.579       .  S
C1132      H1138   1.109       .  S
C1134      C1324   1.537   1_554  S
C1135      H1140   1.067       .  S
C1135      C1136   1.382       .  D
C1136      C1181   1.532       .  S
C1141      C1142   1.530       .  S
C1141      C1147   1.546       .  S
C1141      C1145   1.546       .  S
C1141      C1226   1.564       .  S
C1142      H1149   1.079       .  S
C1142      C1143   1.373       .  D
C1143      C1144   1.590       .  S
C1143      C1443   1.558       .  S
C1144      C1148   1.561       .  S
C1144      C1146   1.583       .  S
C1144      H1150   1.097       .  S
C1145      H1151   1.085       .  S
C1145      C1146   1.362       .  D
C1146      C1315   1.537       .  S
C1147      H1152   1.086       .  S
C1147      C1148   1.378       .  D
C1148      C1188   1.514       .  S
C1153      C1159   1.553   1_554  S
C1153      C1262   1.584   1_554  S
C1154      H1161   1.079       .  S
C1154      C1155   1.375       .  D
C1155      C1156   1.583       .  S
C1155      C1197   1.557       .  S
C1156      C1158   1.598       .  S
C1156      H1162   1.106       .  S
C1157      H1163   1.081       .  S
C1157      C1158   1.367       .  D
C1158      C1235   1.554       .  S
C1159      H1164   1.086       .  S
C1159      C1160   1.383   1_556  D
C1160      C1390   1.537   1_554  S
C1165      C1166   1.538       .  S
C1165      C1171   1.558       .  S
C1165      C1169   1.529       .  S
C1165      C1253   1.584       .  S
C1166      H1173   1.082       .  S
C1166      C1167   1.379       .  D
C1167      C1168   1.581       .  S
C1167      C1206   1.542       .  S
C1168      C1172   1.569       .  S
C1168      C1170   1.590       .  S
C1168      H1174   1.110       .  S
C1169      H1175   1.084       .  S
C1169      C1170   1.367       .  D
C1170      C1244   1.529       .  S
C1171      H1176   1.073       .  S
C1171      C1172   1.382       .  D
C1172      C1379   1.550       .  S
C1177      C1178   1.373       .  A
C1177      C1182   1.434       .  A
C1177      C1410   1.467       .  S
C1178      C1179   1.384       .  A
C1178      H2687   1.085       .  S
C1179      C1180   1.435       .  A
C1179      C1285   1.465       .  S
C1180      C1181   1.414       .  A
C1180      H1184   1.076       .  S
C1181      C1182   1.400       .  A
C1182      H1185   1.083       .  S
H1183      C2682   1.085       .  S
C1186      C1187   1.413       .  A
C1186      C1191   1.395       .  A
C1186      C1436   1.476       .  S
C1187      C1188   1.415       .  A
C1187      H1192   1.084       .  S
C1188      C1189   1.425       .  A
C1189      C1190   1.423       .  A
C1189      H1193   1.083       .  S
C1190      C1191   1.395       .  A
C1190      C1308   1.491       .  S
C1191      H2698   1.086   1_455  S
H1194      C2695   1.086       .  S
C1195      C1196   1.414       .  A
C1195      C1200   1.366       .  A
C1195      C1416   1.473       .  S
C1196      C1197   1.406       .  A
C1196      H1201   1.074       .  S
C1197      C1198   1.425       .  A
C1198      C1199   1.447       .  A
C1198      H1202   1.082       .  S
C1199      C1200   1.391       .  A
C1199      C1475   1.464       .  S
C1200      H1203   1.085       .  S
C1204      C1205   1.410       .  A
C1204      C1209   1.379       .  A
C1204      C1419   1.475       .  S
C1205      C1206   1.425       .  A
C1205      H1210   1.083       .  S
C1206      C1207   1.435       .  A
C1207      C1208   1.439       .  A
C1207      H1211   1.082       .  S
C1208      C1209   1.394       .  A
C1208      C1498   1.493       .  S
C1209      H1212   1.087       .  S
C1213      C1214   1.417       .  A
C1213      C1218   1.374       .  A
C1213      C1346   1.458       .  S
C1214      C1215   1.410       .  A
C1214      H1219   1.065       .  S
C1215      C1216   1.433       .  A
C1216      C1217   1.437       .  A
C1216      H1220   1.076       .  S
C1217      C1218   1.379       .  A
C1217      C1477   1.470       .  S
C1218      H1221   1.086       .  S
C1222      C1223   1.394       .  A
C1222      C1227   1.423       .  A
C1222      C1500   1.485       .  S
C1223      C1224   1.396       .  A
C1223      H1228   1.084       .  S
C1224      C1225   1.410       .  A
C1224      C1369   1.472       .  S
C1225      C1226   1.408       .  A
C1225      H1229   1.083       .  S
C1226      C1227   1.428       .  A
C1227      H1230   1.080       .  S
C1231      C1232   1.377       .  A
C1231      C1236   1.432       .  A
C1231      C1352   1.460       .  S
C1232      C1233   1.375       .  A
C1233      C1234   1.431       .  A
C1233      C1283   1.470       .  S
C1234      C1235   1.430       .  A
C1234      H1238   1.077       .  S
C1235      C1236   1.404       .  A
C1236      H1239   1.071       .  S
C1240      C1241   1.396       .  A
C1240      C1245   1.426       .  A
C1240      C1375   1.475       .  S
C1241      C1242   1.389       .  A
C1242      C1243   1.420       .  A
C1242      C1306   1.479       .  S
C1243      C1244   1.426       .  A
C1243      H1247   1.082       .  S
C1244      C1245   1.404       .  A
C1245      H1248   1.083       .  S
C1249      C1250   1.371       .  A
C1249      C1254   1.421       .  A
C1249      C1282   1.456       .  S
C1250      C1251   1.376       .  A
C1250      H2759   1.086       .  S
C1251      C1252   1.436       .  A
C1251      C1413   1.463       .  S
C1252      C1253   1.432       .  A
C1252      H1256   1.078       .  S
C1253      C1254   1.404       .  A
C1254      H1257   1.077       .  S
H1255      C2754   1.086   1_455  S
C1258      C1259   1.410       .  A
C1258      C1263   1.428       .  A
C1258      C1305   1.500       .  S
C1259      C1260   1.413       .  A
C1259      H2768   1.083       .  S
C1260      C1261   1.434       .  A
C1260      C1433   1.509       .  S
C1261      C1262   1.417       .  A
C1261      H1265   1.080       .  S
C1262      C1263   1.404       .  A
C1263      H1266   1.079       .  S
H1264      C2763   1.083   1_455  S
O1267      C1283   1.271       .  A
O1267     Zn1273   1.954       .  S
C1268      C2062   1.461       .  S
C1268      O2785   1.269   1_545  A
O1269      C2786   1.282   1_455  A
O1269     Cd1276   2.102       .  S
O1270      C1288   1.251   1_545  A
O1270     Cd1279   1.961   1_545  S
O1271      C2789   1.284       .  A
O1271     Cd1275   2.058       .  S
O1272     Cd1275   2.070       .  S
Zn1273     O1284   1.991       .  S
Zn1273     O1286   1.853       .  S
Zn1273     O1278   1.850       .  S
O1274      C1285   1.262       .  A
O1274     Cd1279   2.021       .  S
Cd1275     O1277   2.058       .  S
Cd1276     O1280   2.075   1_455  S
Cd1276     O1289   2.121       .  S
Cd1276     O2782   1.990       .  S
O1277      C2039   1.264       .  A
O1278     Cd2780   1.990       .  S
O1278     Cd2031   1.957       .  S
Cd1279     O1281   2.059       .  S
Cd1279     O2030   1.958       .  S
O1280      C1287   1.276       .  A
O1281      C2772   1.269   1_565  A
C1282      O2773   1.282       .  A
C1282      O1286   1.253       .  A
C1285      O2775   1.284   1_455  A
C1287      C1667   1.460       .  S
C1287      O2029   1.264       .  A
C1288      C1313   1.468       .  S
O1290      C1306   1.277       .  A
O1290     Zn1296   2.048       .  S
C1291      C1663   1.460   1_556  S
C1291      O2808   1.281       .  A
O1292      C2809   1.289   1_455  A
O1292     Cd1299   2.192       .  S
O1293      C1311   1.270       .  A
O1293     Cd1302   2.056       .  S
O1294      C2812   1.284       .  A
O1294     Cd1298   2.133       .  S
O1295     Cd1298   2.055   1_545  S
Zn1296     O1307   1.955       .  S
Zn1296     O1309   1.894       .  S
Zn1296     O1301   1.864       .  S
O1297      C1308   1.286       .  A
O1297     Cd1302   2.087       .  S
Cd1298     O1300   2.007   1_565  S
Cd1299     O1303   2.135       .  S
Cd1299     O1312   2.128       .  S
Cd1299     O2805   2.062   1_455  S
O1300      C2062   1.244       .  A
O1301     Cd2803   2.062       .  S
O1301     Cd2054   1.955       .  S
Cd1302     O1304   2.086   1_455  S
Cd1302     O2053   1.955   1_455  S
O1303      C1310   1.268       .  A
O1304      C2795   1.281       .  A
C1305      O2796   1.289       .  A
C1305      O1309   1.258       .  A
C1308      O2798   1.284       .  A
C1310      C2020   1.461       .  S
C1310      O2052   1.244       .  A
C1311      C1322   1.494       .  S
C1313      C1314   1.435       .  A
C1313      C1318   1.381       .  A
C1314      C1315   1.410       .  A
C1314      H1319   1.075       .  S
C1315      C1316   1.408       .  A
C1316      C1317   1.421       .  A
C1316      H1320   1.072       .  S
C1317      C1318   1.380       .  A
C1317      C1347   1.461       .  S
C1322      C1323   1.427       .  A
C1322      C1327   1.396       .  A
C1323      C1324   1.422       .  A
C1323      H1328   1.082       .  S
C1324      C1325   1.430       .  A
C1325      C1326   1.414       .  A
C1325      H1329   1.081       .  S
C1326      C1327   1.392       .  A
C1326      C1370   1.488       .  S
O1331      C1347   1.265       .  A
O1331     Zn1337   1.927       .  S
C1332      O1345   1.268       .  A
O1333      C1346   1.278       .  A
O1333     Cd1340   2.108       .  S
O1334      C1352   1.256       .  A
O1334     Cd1343   1.950       .  S
O1335      C1349   1.289       .  A
O1335     Cd1339   2.108       .  S
O1336     Cd1339   2.100       .  S
Zn1337     O1348   2.014       .  S
Zn1337     O1350   1.912       .  S
Zn1337     O1342   1.885       .  S
O1338      C1349   1.253       .  A
O1338     Cd1343   1.973       .  S
Cd1339     O1341   2.099       .  S
Cd1340     O1344   2.083   1_565  S
Cd1340     O1353   2.108       .  S
Cd1340     O1342   1.988       .  S
Cd1343     O1345   2.004       .  S
O1344      C1351   1.277       .  A
C1346      O1350   1.259       .  A
C1349      C1381   1.466       .  S
O1354      C1370   1.283       .  A
O1354     Zn1360   2.019       .  S
C1355      O1368   1.282       .  A
O1356      C1369   1.279       .  A
O1356     Cd1363   2.087       .  S
O1357      C1375   1.262       .  A
O1357     Cd1366   1.981       .  S
O1358      C1372   1.272       .  A
O1358     Cd1362   2.033       .  S
O1359     Cd1362   2.122       .  S
Zn1360     O1371   2.017   1_565  S
Zn1360     O1373   1.960       .  S
Zn1360     O1365   1.853   1_565  S
O1361      C1372   1.284       .  A
O1361     Cd1366   2.130       .  S
Cd1362     O1364   1.998       .  S
Cd1363     O1367   2.118       .  S
Cd1363     O1376   2.127       .  S
Cd1363     O1365   2.041   1_565  S
Cd1366     O1368   2.085       .  S
O1367      C1374   1.264       .  A
C1369      O1373   1.267       .  A
C1372      C1386   1.485       .  S
C1377      C1378   1.441       .  A
C1377      C1382   1.373       .  A
C1377      C1474   1.478       .  S
C1378      C1379   1.420       .  A
C1378      H1383   1.077       .  S
C1379      C1380   1.416       .  A
C1380      C1381   1.432       .  A
C1380      H1384   1.078       .  S
C1381      C1382   1.375       .  A
C1382      H1385   1.086       .  S
C1386      C1387   1.381       .  A
C1386      C1391   1.431       .  A
C1387      C1388   1.391       .  A
C1387      H1392   1.086       .  S
C1388      C1389   1.426       .  A
C1388      C1497   1.482       .  S
C1389      C1390   1.421       .  A
C1389      H1393   1.083       .  S
C1390      C1391   1.428       .  A
C1391      H1394   1.083       .  S
O1395      C1411   1.277       .  A
O1395     Zn1401   1.959       .  S
C1396      C2562   1.475       .  S
C1396      O1412   1.269   1_655  A
C1396      O2913   1.267       .  A
O1397      C2914   1.288       .  A
O1397     Cd1404   2.152       .  S
O1398      C1416   1.250       .  A
O1398     Cd1407   1.894       .  S
O1399      C2917   1.272       .  A
O1399     Cd1403   2.061       .  S
O1400      C1411   1.272       .  A
O1400     Cd1403   2.030       .  S
Zn1401     O1412   2.021       .  S
Zn1401     O1414   1.783       .  S
Zn1401     O1406   1.886       .  S
O1402      C1413   1.274       .  A
O1402     Cd1407   1.999       .  S
Cd1403     O1405   2.057       .  S
Cd1403     O1406   1.970       .  S
Cd1404     O1408   2.107       .  S
Cd1404     O1417   2.154       .  S
Cd1404     O2910   1.990       .  S
O1405      C2919   1.262       .  A
O1406     Cd2908   1.990   1_455  S
O1406     Cd2911   1.928   1_455  S
Cd1407     O1409   2.062       .  S
Cd1407     O2910   1.928       .  S
O1408      C1415   1.283       .  A
O1409      C2900   1.267       .  A
C1410      O2901   1.288   1_455  A
C1410      O1414   1.240       .  A
C1411      C1441   1.454       .  S
C1413      O2903   1.272       .  A
C1415      C2943   1.473       .  S
C1415      O2909   1.262       .  A
C1416      O1417   1.288       .  A
O1418      C1434   1.270       .  A
O1418     Zn1424   1.993       .  S
C1419      O1435   1.271       .  A
C1419      O1432   1.276       .  A
O1420      C2937   1.295   1_455  A
O1420     Cd1427   2.206       .  S
O1421      C2943   1.250       .  A
O1421     Cd1430   1.972       .  S
O1422      C1436   1.275       .  A
O1422     Cd1426   2.058       .  S
O1423      C2938   1.269       .  A
O1423     Cd1426   2.036   1_655  S
Zn1424     O1435   2.032       .  S
Zn1424     O1437   1.947       .  S
Zn1424     O1429   1.920       .  S
O1425      C2940   1.279       .  A
O1425     Cd1430   2.109       .  S
Cd1426     O1428   2.041       .  S
Cd1426     O2933   1.987   1_455  S
Cd1427     O1431   2.198       .  S
Cd1427     O1440   2.189       .  S
Cd1427     O2933   2.008   1_455  S
O1428      C1438   1.271       .  A
O1429     Cd2930   1.987       .  S
O1429     Cd2931   2.008       .  S
O1429     Cd1430   1.978       .  S
Cd1430     O1432   2.067       .  S
O1431      C1438   1.299       .  A
C1433      O2924   1.295       .  A
C1433      O1437   1.268       .  A
C1434      C2524   1.475       .  S
C1434      O2927   1.269       .  A
C1436      O2929   1.279   1_455  A
C1438      C1452   1.508       .  S
C1439      C2919   1.473       .  S
C1439      O2925   1.250   1_455  A
C1439      O1440   1.287       .  A
C1441      C1442   1.447       .  A
C1441      C1446   1.379       .  A
C1442      C1443   1.424       .  A
C1442      H1447   1.081       .  S
C1443      C1444   1.412       .  A
C1444      C1445   1.417       .  A
C1444      H1448   1.077       .  S
C1445      C1446   1.364       .  A
C1445      C1480   1.466       .  S
C1446      H1449   1.086       .  S
C1450      C1451   1.398       .  A
C1450      C1455   1.413       .  A
C1450      C1503   1.493       .  S
C1451      C1452   1.413       .  A
C1451      H1456   1.083       .  S
C1452      C1453   1.446       .  A
C1453      C1454   1.424       .  A
C1453      H1457   1.082       .  S
C1454      C1455   1.406       .  A
C1455      H1458   1.080       .  S
O1459      C1475   1.265       .  A
O1459     Zn1465   1.987       .  S
C1460      C1502   1.461       .  S
C1460      O1476   1.274       .  A
C1460      O1473   1.268       .  A
O1461      C1474   1.285       .  A
O1461     Cd1468   2.141       .  S
O1462      C1480   1.251       .  A
O1462     Cd1471   1.910       .  S
O1463      C1477   1.271       .  A
O1463     Cd1467   2.069       .  S
O1464      C1475   1.283       .  A
O1464     Cd1467   2.046       .  S
Zn1465     O1476   2.039       .  S
Zn1465     O1478   1.885       .  S
Zn1465     O1470   1.907       .  S
O1466      C1477   1.271       .  A
O1466     Cd1471   2.008       .  S
Cd1467     O1469   2.043       .  S
Cd1467     O1470   1.965       .  S
Cd1468     O1472   2.099       .  S
Cd1468     O1481   2.130       .  S
Cd1468     O1470   1.980       .  S
O1469      C1479   1.262       .  A
O1470     Cd1471   1.899       .  S
Cd1471     O1473   2.009       .  S
O1472      C1479   1.278       .  A
C1474      O1478   1.249       .  A
C1480      O1481   1.286       .  A
O1482      C1498   1.285       .  A
O1482     Zn1488   2.019       .  S
C1483      O1499   1.280       .  A
C1483      O1496   1.272       .  A
O1484      C1497   1.284       .  A
O1484     Cd1491   2.105       .  S
O1485      C1503   1.264       .  A
O1485     Cd1494   1.976       .  S
O1486      C1500   1.274       .  A
O1486     Cd1490   2.077       .  S
O1487      C1498   1.285       .  A
O1487     Cd1490   2.150       .  S
Zn1488     O1499   2.031       .  S
Zn1488     O1501   1.975       .  S
Zn1488     O1493   1.888       .  S
O1489      C1500   1.279       .  A
O1489     Cd1494   2.093       .  S
Cd1490     O1492   2.005       .  S
Cd1490     O1493   1.953       .  S
Cd1491     O1495   2.138       .  S
Cd1491     O1504   2.175       .  S
Cd1491     O1493   2.055       .  S
O1492      C1502   1.245       .  A
O1493     Cd1494   1.921       .  S
Cd1494     O1496   2.020       .  S
O1495      C1502   1.266       .  A
C1497      O1501   1.264       .  A
C1503      O1504   1.289       .  A
C1505      C1506   1.534       .  S
C1505      C1511   1.554       .  S
C1505      C1509   1.538       .  S
C1505      C1591   1.598       .  S
C1506      H1889   1.079       .  S
C1506      C1883   1.382       .  D
C1507      C1508   1.579       .  S
C1507      C1882   1.382       .  D
C1507      C1830   1.547       .  S
C1508      C1888   1.556       .  S
C1508      C1510   1.579       .  S
C1508      H1514   1.109       .  S
C1509      H1891   1.080       .  S
C1509      C1886   1.374       .  D
C1510      C1885   1.374       .  D
C1510      C1700   1.537       .  S
C1511      H1516   1.067       .  S
C1511      C1512   1.382       .  D
C1512      C1884   1.556       .  S
C1512      C1557   1.533       .  S
H1513      C1882   1.079       .  S
H1515      C1885   1.080       .  S
C1517      C1518   1.530       .  S
C1517      C1523   1.546       .  S
C1517      C1521   1.546       .  S
C1517      C1602   1.564       .  S
C1518      H1525   1.079       .  S
C1518      C1519   1.373       .  D
C1519      C1520   1.590       .  S
C1519      C1819   1.558       .  S
C1520      C1524   1.561       .  S
C1520      C1522   1.582       .  S
C1520      H1526   1.097       .  S
C1521      H1527   1.085       .  S
C1521      C1522   1.363       .  D
C1522      C1691   1.536       .  S
C1523      H1528   1.086       .  S
C1523      C1524   1.378       .  D
C1524      C1564   1.514       .  S
C1529      C1906   1.528       .  S
C1529      C1535   1.553       .  S
C1529      C1909   1.548       .  S
C1529      C1638   1.584       .  S
C1530      C1905   1.528       .  S
C1530      H1537   1.079       .  S
C1530      C1531   1.375       .  D
C1531      C1532   1.583       .  S
C1531      C1573   1.557       .  S
C1532      C1912   1.576       .  S
C1532      C1534   1.598       .  S
C1532      H1538   1.106       .  S
C1533      C1905   1.548       .  S
C1533      H1539   1.081       .  S
C1533      C1534   1.367       .  D
C1534      C1611   1.554       .  S
C1535      H1540   1.086       .  S
C1535      C1536   1.383       .  D
C1536      C1908   1.576       .  S
C1536      C1766   1.537       .  S
C1541      C1542   1.538       .  S
C1541      C1547   1.558       .  S
C1541      C1545   1.529       .  S
C1541      C1629   1.584       .  S
C1542      H1549   1.082       .  S
C1542      C1543   1.379       .  D
C1543      C1544   1.581       .  S
C1543      C1582   1.542       .  S
C1544      C1548   1.568       .  S
C1544      C1546   1.591       .  S
C1544      H1550   1.110       .  S
C1545      H1551   1.085       .  S
C1545      C1546   1.367       .  D
C1546      C1620   1.529       .  S
C1547      H1552   1.073       .  S
C1547      C1548   1.382       .  D
C1548      C1755   1.550       .  S
C1553      C1554   1.373       .  A
C1553      C1558   1.434       .  A
C1553      C1786   1.467       .  S
C1554      C1555   1.384       .  A
C1555      C1556   1.436       .  A
C1555      C1661   1.465       .  S
C1556      C1557   1.414       .  A
C1556      H1560   1.076       .  S
C1557      C1558   1.400       .  A
C1558      H1561   1.083       .  S
C1562      C1563   1.413       .  A
C1562      C1567   1.395       .  A
C1562      C1812   1.476       .  S
C1563      C1564   1.415       .  A
C1563      H1568   1.084       .  S
C1564      C1565   1.425       .  A
C1565      C1566   1.423       .  A
C1565      H1569   1.083       .  S
C1566      C1567   1.395       .  A
C1566      C1684   1.491       .  S
C1571      C1572   1.414       .  A
C1571      C1576   1.366       .  A
C1571      C1792   1.473       .  S
C1572      C1573   1.406       .  A
C1572      H1577   1.074       .  S
C1573      C1574   1.425       .  A
C1574      C1575   1.447       .  A
C1574      H1578   1.082       .  S
C1575      C1576   1.391       .  A
C1575      C1851   1.464       .  S
C1576      H1579   1.085       .  S
C1580      C1581   1.410       .  A
C1580      C1585   1.379       .  A
C1580      C1795   1.475       .  S
C1581      C1582   1.425       .  A
C1581      H1586   1.083       .  S
C1582      C1583   1.435       .  A
C1583      C1584   1.439       .  A
C1583      H1587   1.082       .  S
C1584      C1585   1.394       .  A
C1584      C1874   1.493       .  S
C1585      H1588   1.087       .  S
C1589      C1590   1.418       .  A
C1589      C1594   1.374       .  A
C1589      C1722   1.459       .  S
C1590      C1591   1.410       .  A
C1590      H1595   1.065       .  S
C1591      C1592   1.433       .  A
C1592      C1593   1.437       .  A
C1592      H1596   1.076       .  S
C1593      C1594   1.379       .  A
C1593      C1853   1.470       .  S
C1594      H1597   1.086       .  S
C1598      C1599   1.394       .  A
C1598      C1603   1.423       .  A
C1598      C1876   1.485       .  S
C1599      C1600   1.396       .  A
C1599      H1604   1.084       .  S
C1600      C1601   1.410       .  A
C1600      C1745   1.472       .  S
C1601      C1602   1.408       .  A
C1601      H1605   1.083       .  S
C1602      C1603   1.428       .  A
C1603      H1606   1.080       .  S
C1607      C1608   1.377       .  A
C1607      C1612   1.432       .  A
C1607      C1728   1.460       .  S
C1608      C1609   1.374       .  A
C1608      H2365   1.086   1_545  S
C1609      C1610   1.431       .  A
C1609      C1659   1.471       .  S
C1610      C1611   1.430       .  A
C1610      H1614   1.077       .  S
C1611      C1612   1.404       .  A
C1612      H1615   1.071       .  S
H1613      C2360   1.086       .  S
C1616      C1617   1.396       .  A
C1616      C1621   1.426       .  A
C1616      C1751   1.475       .  S
C1617      C1618   1.389       .  A
C1617      H2374   1.084       .  S
C1618      C1619   1.420       .  A
C1618      C1682   1.479       .  S
C1619      C1620   1.426       .  A
C1619      H1623   1.082       .  S
C1620      C1621   1.404       .  A
C1621      H1624   1.083       .  S
H1622      C2369   1.084       .  S
C1625      C1626   1.371       .  A
C1625      C1630   1.421       .  A
C1625      C1658   1.456       .  S
C1626      C1627   1.376       .  A
C1627      C1628   1.436       .  A
C1627      C1789   1.463   1_655  S
C1628      C1629   1.432       .  A
C1628      H1632   1.078       .  S
C1629      C1630   1.404       .  A
C1630      H1633   1.077       .  S
C1634      C1635   1.410       .  A
C1634      C1639   1.428       .  A
C1634      C1681   1.500       .  S
C1635      C1636   1.413       .  A
C1636      C1637   1.434       .  A
C1636      C1809   1.509       .  S
C1637      C1638   1.417       .  A
C1637      H1641   1.080       .  S
C1638      C1639   1.404       .  A
C1639      H1642   1.079       .  S
O1643      C1659   1.271       .  A
O1643     Zn1649   1.954       .  S
C1644      O2412   1.273       .  A
O1645     Cd1652   2.102       .  S
O1646      C1664   1.251       .  A
O1646     Cd1655   1.961       .  S
O1647     Cd1651   2.059       .  S
O1648      C2411   1.274       .  A
O1648     Cd1651   2.070       .  S
Zn1649     O1660   1.991   1_655  S
Zn1649     O1662   1.853       .  S
Zn1649     O1654   1.850   1_645  S
O1650      C1661   1.262       .  A
O1650     Cd1655   2.021       .  S
Cd1651     O1653   2.058       .  S
Cd1651     O2406   1.964   1_655  S
Cd1652     O1656   2.075       .  S
Cd1652     O1665   2.121       .  S
O1654     Cd2403   1.964   1_455  S
Cd1655     O1657   2.059       .  S
O1656      C1663   1.276   1_545  A
C1658      O1662   1.253       .  A
C1659      O2400   1.274   1_545  A
O1660      C2396   1.273       .  A
C1664      C1689   1.468       .  S
C1664      O2417   1.279       .  A
O1665      C2416   1.279   1_545  A
O1666      C1682   1.277       .  A
O1666     Zn1672   2.048       .  S
C1667      O2435   1.271       .  A
O1668     Cd1675   2.192       .  S
O1669      C1687   1.270       .  A
O1669     Cd1678   2.056       .  S
O1670     Cd1674   2.133   1_455  S
O1671      C2434   1.270       .  A
O1671     Cd1674   2.055       .  S
Zn1672     O1683   1.956   1_545  S
Zn1672     O1685   1.894       .  S
Zn1672     O1677   1.864   1_545  S
O1673      C1684   1.286       .  A
O1673     Cd1678   2.087       .  S
Cd1674     O1676   2.007   1_655  S
Cd1674     O2429   1.946       .  S
Cd1675     O1679   2.135       .  S
Cd1675     O1688   2.127       .  S
O1677     Cd2426   1.946       .  S
Cd1678     O1680   2.086       .  S
O1679      C1686   1.268       .  A
C1681      O1685   1.258       .  A
C1682      O2423   1.270       .  A
O1683      C2419   1.271       .  A
C1687      C1698   1.494       .  S
C1687      O2440   1.288       .  A
O1688      C2439   1.288   1_545  A
C1689      C1690   1.435       .  A
C1689      C1694   1.381       .  A
C1690      C1691   1.410       .  A
C1690      H1695   1.075       .  S
C1691      C1692   1.407       .  A
C1692      C1693   1.421       .  A
C1692      H1696   1.072       .  S
C1693      C1694   1.380       .  A
C1693      C1723   1.461       .  S
C1694      H2449   1.085       .  S
H1697      C2446   1.085   1_545  S
C1698      C1699   1.427       .  A
C1698      C1703   1.396       .  A
C1699      C1700   1.422       .  A
C1699      H1704   1.082       .  S
C1700      C1701   1.430       .  A
C1701      C1702   1.414       .  A
C1701      H1705   1.081       .  S
C1702      C1703   1.392       .  A
C1702      C1746   1.489       .  S
C1703      H2458   1.084       .  S
H1706      C2455   1.084   1_545  S
O1707      C1723   1.265       .  A
O1707     Zn1713   1.926       .  S
C1708      C2878   1.447       .  S
C1708      O2476   1.266   1_556  A
C1708      O1721   1.268   1_566  A
O1709      C1722   1.278       .  A
O1709     Cd1716   2.109       .  S
O1710      C1728   1.256   1_565  A
O1710     Cd1719   1.950   1_565  S
O1711      C1725   1.289       .  A
O1711     Cd1715   2.108       .  S
O1712      C2475   1.289   1_545  A
O1712     Cd1715   2.100       .  S
Zn1713     O1724   2.013       .  S
Zn1713     O1726   1.912       .  S
Zn1713     O1718   1.885       .  S
O1714      C1725   1.253       .  A
O1714     Cd1719   1.973       .  S
Cd1715     O1717   2.099       .  S
Cd1715     O2470   1.960   1_545  S
Cd1716     O1720   2.083       .  S
Cd1716     O1729   2.109       .  S
Cd1716     O1718   1.988       .  S
O1717      C2479   1.272       .  A
O1718     Cd2467   1.960       .  S
O1718     Cd2471   1.903       .  S
Cd1719     O1721   2.004       .  S
Cd1719     O2470   1.903   1_545  S
O1720      C1727   1.277       .  A
C1722      O1726   1.259       .  A
C1723      O2464   1.289       .  A
O1724      C2460   1.266   1_554  A
C1725      C1757   1.466       .  S
C1727      C2483   1.475       .  S
C1727      O2469   1.272       .  A
C1728      O2481   1.278   1_545  A
O1729      C2480   1.278       .  A
O1730      C1746   1.283       .  A
O1730     Zn1736   2.018       .  S
C1731      C2479   1.475       .  S
C1731      O2499   1.278       .  A
C1731      O1744   1.282       .  A
O1732      C1745   1.279       .  A
O1732     Cd1739   2.087       .  S
O1733      C1751   1.262       .  A
O1733     Cd1742   1.981       .  S
O1734      C1748   1.272       .  A
O1734     Cd1738   2.032       .  S
O1735      C2498   1.285       .  A
O1735     Cd1738   2.122   1_565  S
Zn1736     O1747   2.017       .  S
Zn1736     O1749   1.960       .  S
Zn1736     O1741   1.853       .  S
O1737      C1748   1.284       .  A
O1737     Cd1742   2.130       .  S
Cd1738     O1740   1.998       .  S
Cd1738     O2493   1.925       .  S
Cd1739     O1743   2.118       .  S
Cd1739     O1752   2.127       .  S
Cd1739     O1741   2.041       .  S
O1740      C2502   1.238   1_545  A
O1741     Cd2490   1.925       .  S
O1741     Cd2494   1.932       .  S
Cd1742     O1744   2.085       .  S
Cd1742     O2493   1.932       .  S
O1743      C1750   1.264       .  A
C1745      O1749   1.267       .  A
C1746      O2487   1.285       .  A
O1747      C2483   1.278       .  A
C1748      C1762   1.485       .  S
C1750      C2836   1.447       .  S
C1750      O2492   1.238       .  A
C1751      O2504   1.288   1_545  A
O1752      C2503   1.288       .  A
C1753      C1754   1.441       .  A
C1753      C1758   1.373       .  A
C1753      C1850   1.478       .  S
C1754      C1755   1.420       .  A
C1754      H1759   1.077       .  S
C1755      C1756   1.416       .  A
C1756      C1757   1.432       .  A
C1756      H1760   1.078       .  S
C1757      C1758   1.375       .  A
C1758      H1761   1.086       .  S
C1762      C1763   1.381       .  A
C1762      C1767   1.431       .  A
C1763      C1764   1.391       .  A
C1763      H1768   1.086       .  S
C1764      C1765   1.427       .  A
C1764      C1873   1.482       .  S
C1765      C1766   1.421       .  A
C1765      H1769   1.083       .  S
C1766      C1767   1.428       .  A
C1767      H1770   1.083       .  S
O1771      C1787   1.277       .  A
O1771     Zn1777   1.959       .  S
C1772      O1788   1.269   1_556  A
O1773     Cd1780   2.152       .  S
O1774      C1792   1.250       .  A
O1774     Cd1783   1.894       .  S
O1775     Cd1779   2.061       .  S
O1776      C1787   1.272       .  A
O1776     Cd1779   2.030       .  S
Zn1777     O1788   2.021       .  S
Zn1777     O1790   1.783       .  S
Zn1777     O1782   1.887       .  S
O1778      C1789   1.274       .  A
O1778     Cd1783   1.999   1_455  S
Cd1779     O1781   2.057       .  S
Cd1779     O1782   1.970       .  S
Cd1780     O1784   2.107       .  S
Cd1780     O1793   2.154       .  S
Cd1783     O1785   2.062       .  S
O1784      C1791   1.283   1_655  A
C1786      O1790   1.240       .  A
C1787      C1817   1.454       .  S
C1792      O1793   1.288       .  A
O1794      C1810   1.270       .  A
O1794     Zn1800   1.993       .  S
C1795      O1811   1.271       .  A
C1795      O1808   1.275       .  A
O1796     Cd1803   2.205       .  S
O1797     Cd1806   1.973       .  S
O1798      C1812   1.275       .  A
O1798     Cd1802   2.058       .  S
O1799     Cd1802   2.036       .  S
Zn1800     O1811   2.031       .  S
Zn1800     O1813   1.946       .  S
Zn1800     O1805   1.920       .  S
O1801     Cd1806   2.109       .  S
Cd1802     O1804   2.041       .  S
Cd1803     O1807   2.197       .  S
Cd1803     O1816   2.189       .  S
O1804      C1814   1.271       .  A
O1805     Cd1806   1.978       .  S
Cd1806     O1808   2.067       .  S
O1807      C1814   1.299       .  A
C1809      O1813   1.268       .  A
C1814      C1828   1.508       .  S
C1815      O1816   1.287       .  A
C1817      C1818   1.447       .  A
C1817      C1822   1.379       .  A
C1818      C1819   1.424       .  A
C1818      H1823   1.081       .  S
C1819      C1820   1.412       .  A
C1820      C1821   1.417       .  A
C1820      H1824   1.077       .  S
C1821      C1822   1.364       .  A
C1821      C1856   1.466       .  S
C1822      H1825   1.086       .  S
C1826      C1827   1.398       .  A
C1826      C1831   1.413       .  A
C1826      C1879   1.493       .  S
C1827      C1828   1.413       .  A
C1827      H1832   1.083       .  S
C1828      C1829   1.446       .  A
C1829      C1830   1.424       .  A
C1829      H1833   1.082       .  S
C1830      C1831   1.406       .  A
C1831      H1834   1.080       .  S
O1835      C1851   1.265       .  A
O1835     Zn1841   1.987       .  S
C1836      C1878   1.462       .  S
C1836      O1852   1.274       .  A
C1836      O1849   1.268       .  A
O1837      C1850   1.285       .  A
O1837     Cd1844   2.141       .  S
O1838      C1856   1.251       .  A
O1838     Cd1847   1.910       .  S
O1839      C1853   1.271       .  A
O1839     Cd1843   2.070       .  S
O1840      C1851   1.283       .  A
O1840     Cd1843   2.046       .  S
Zn1841     O1852   2.039       .  S
Zn1841     O1854   1.885       .  S
Zn1841     O1846   1.907       .  S
O1842      C1853   1.272       .  A
O1842     Cd1847   2.008       .  S
Cd1843     O1845   2.043       .  S
Cd1843     O1846   1.965       .  S
Cd1844     O1848   2.098       .  S
Cd1844     O1857   2.130       .  S
Cd1844     O1846   1.979       .  S
O1845      C1855   1.262       .  A
O1846     Cd1847   1.899       .  S
Cd1847     O1849   2.009       .  S
O1848      C1855   1.278       .  A
C1850      O1854   1.248       .  A
C1855      C2235   1.464   1_554  S
C1856      O1857   1.286       .  A
O1858      C1874   1.285       .  A
O1858     Zn1864   2.020       .  S
C1859      C2231   1.464       .  S
C1859      O1875   1.280       .  A
C1859      O1872   1.272       .  A
O1860      C1873   1.284       .  A
O1860     Cd1867   2.106       .  S
O1861      C1879   1.264       .  A
O1861     Cd1870   1.976       .  S
O1862      C1876   1.274       .  A
O1862     Cd1866   2.077       .  S
O1863      C1874   1.285       .  A
O1863     Cd1866   2.149       .  S
Zn1864     O1875   2.031       .  S
Zn1864     O1877   1.975       .  S
Zn1864     O1869   1.888       .  S
O1865      C1876   1.279       .  A
O1865     Cd1870   2.093       .  S
Cd1866     O1868   2.005       .  S
Cd1866     O1869   1.953       .  S
Cd1867     O1871   2.138       .  S
Cd1867     O1880   2.175       .  S
Cd1867     O1869   2.055       .  S
O1868      C1878   1.245       .  A
O1869     Cd1870   1.922       .  S
Cd1870     O1872   2.020       .  S
O1871      C1878   1.266       .  A
C1873      O1877   1.264       .  A
C1879      O1880   1.289       .  A
C1881      C1882   1.534       .  S
C1881      C1887   1.554       .  S
C1881      C1885   1.538       .  S
C1881      C1967   1.598       .  S
C1883      C1884   1.579       .  S
C1883      C2206   1.547   1_554  S
C1884      C1886   1.579       .  S
C1884      H1890   1.109       .  S
C1886      C2076   1.537   1_554  S
C1887      H1892   1.067       .  S
C1887      C1888   1.382       .  D
C1888      C1933   1.533       .  S
C1893      C1894   1.530       .  S
C1893      C1899   1.546       .  S
C1893      C1897   1.546       .  S
C1893      C1978   1.564       .  S
C1894      H1901   1.079       .  S
C1894      C1895   1.373       .  D
C1895      C1896   1.590       .  S
C1895      C2195   1.558       .  S
C1896      C1900   1.561       .  S
C1896      C1898   1.582       .  S
C1896      H1902   1.097       .  S
C1897      H1903   1.085       .  S
C1897      C1898   1.363       .  D
C1898      C2067   1.536       .  S
C1899      H1904   1.086       .  S
C1899      C1900   1.378       .  D
C1900      C1940   1.514       .  S
C1905      C1911   1.553   1_554  S
C1905      C2014   1.584   1_554  S
C1906      H1913   1.079       .  S
C1906      C1907   1.375       .  D
C1907      C1908   1.583       .  S
C1907      C1949   1.557       .  S
C1908      C1910   1.598       .  S
C1908      H1914   1.106       .  S
C1909      H1915   1.081       .  S
C1909      C1910   1.367       .  D
C1910      C1987   1.554       .  S
C1911      H1916   1.086       .  S
C1911      C1912   1.383   1_556  D
C1912      C2142   1.537   1_554  S
C1917      C1918   1.538       .  S
C1917      C1923   1.558       .  S
C1917      C1921   1.529       .  S
C1917      C2005   1.584       .  S
C1918      H1925   1.082       .  S
C1918      C1919   1.379       .  D
C1919      C1920   1.581       .  S
C1919      C1958   1.542       .  S
C1920      C1924   1.568       .  S
C1920      C1922   1.591       .  S
C1920      H1926   1.110       .  S
C1921      H1927   1.085       .  S
C1921      C1922   1.367       .  D
C1922      C1996   1.529       .  S
C1923      H1928   1.073       .  S
C1923      C1924   1.382       .  D
C1924      C2131   1.550       .  S
C1929      C1930   1.373       .  A
C1929      C1934   1.434       .  A
C1929      C2162   1.467       .  S
C1930      C1931   1.384       .  A
C1931      C1932   1.436       .  A
C1931      C2037   1.465       .  S
C1932      C1933   1.414       .  A
C1932      H1936   1.076       .  S
C1933      C1934   1.400       .  A
C1934      H1937   1.083       .  S
C1938      C1939   1.413       .  A
C1938      C1943   1.395       .  A
C1938      C2188   1.476       .  S
C1939      C1940   1.415       .  A
C1939      H1944   1.084       .  S
C1940      C1941   1.425       .  A
C1941      C1942   1.423       .  A
C1941      H1945   1.083       .  S
C1942      C1943   1.395       .  A
C1942      C2060   1.491       .  S
C1947      C1948   1.414       .  A
C1947      C1952   1.366       .  A
C1947      C2168   1.473       .  S
C1948      C1949   1.406       .  A
C1948      H1953   1.074       .  S
C1949      C1950   1.425       .  A
C1950      C1951   1.447       .  A
C1950      H1954   1.082       .  S
C1951      C1952   1.391       .  A
C1951      C2227   1.464       .  S
C1952      H1955   1.085       .  S
C1956      C1957   1.410       .  A
C1956      C1961   1.379       .  A
C1956      C2171   1.475       .  S
C1957      C1958   1.425       .  A
C1957      H1962   1.083       .  S
C1958      C1959   1.435       .  A
C1959      C1960   1.439       .  A
C1959      H1963   1.082       .  S
C1960      C1961   1.394       .  A
C1960      C2250   1.493       .  S
C1961      H1964   1.087       .  S
C1965      C1966   1.418       .  A
C1965      C1970   1.374       .  A
C1965      C2098   1.459       .  S
C1966      C1967   1.410       .  A
C1966      H1971   1.065       .  S
C1967      C1968   1.433       .  A
C1968      C1969   1.437       .  A
C1968      H1972   1.076       .  S
C1969      C1970   1.379       .  A
C1969      C2229   1.470       .  S
C1970      H1973   1.086       .  S
C1974      C1975   1.394       .  A
C1974      C1979   1.423       .  A
C1974      C2252   1.485       .  S
C1975      C1976   1.396       .  A
C1975      H1980   1.084       .  S
C1976      C1977   1.410       .  A
C1976      C2121   1.472       .  S
C1977      C1978   1.408       .  A
C1977      H1981   1.083       .  S
C1978      C1979   1.428       .  A
C1979      H1982   1.080       .  S
C1983      C1984   1.377       .  A
C1983      C1988   1.432       .  A
C1983      C2104   1.460       .  S
C1984      C1985   1.375       .  A
C1984      H2741   1.086   1_545  S
C1985      C1986   1.431       .  A
C1985      C2035   1.471       .  S
C1986      C1987   1.430       .  A
C1986      H1990   1.077       .  S
C1987      C1988   1.404       .  A
C1988      H1991   1.071       .  S
H1989      C2736   1.086       .  S
C1992      C1993   1.396       .  A
C1992      C1997   1.426       .  A
C1992      C2127   1.475       .  S
C1993      C1994   1.389       .  A
C1993      H2750   1.084       .  S
C1994      C1995   1.420       .  A
C1994      C2058   1.479       .  S
C1995      C1996   1.426       .  A
C1995      H1999   1.082       .  S
C1996      C1997   1.404       .  A
C1997      H2000   1.083       .  S
H1998      C2745   1.084       .  S
C2001      C2002   1.371       .  A
C2001      C2006   1.421       .  A
C2001      C2034   1.456       .  S
C2002      C2003   1.376       .  A
C2003      C2004   1.436       .  A
C2003      C2165   1.463   1_655  S
C2004      C2005   1.432       .  A
C2004      H2008   1.078       .  S
C2005      C2006   1.404       .  A
C2006      H2009   1.077       .  S
C2010      C2011   1.410       .  A
C2010      C2015   1.428       .  A
C2010      C2057   1.500       .  S
C2011      C2012   1.413       .  A
C2012      C2013   1.434       .  A
C2012      C2185   1.509       .  S
C2013      C2014   1.417       .  A
C2013      H2017   1.080       .  S
C2014      C2015   1.404       .  A
C2015      H2018   1.079       .  S
O2019      C2035   1.271       .  A
O2019     Zn2025   1.954       .  S
C2020      O2788   1.273       .  A
O2021     Cd2028   2.102       .  S
O2022      C2040   1.251       .  A
O2022     Cd2031   1.961       .  S
O2023     Cd2027   2.059       .  S
O2024      C2787   1.274       .  A
O2024     Cd2027   2.070       .  S
Zn2025     O2036   1.991   1_655  S
Zn2025     O2038   1.853       .  S
Zn2025     O2030   1.850   1_645  S
O2026      C2037   1.262       .  A
O2026     Cd2031   2.021       .  S
Cd2027     O2029   2.058       .  S
Cd2027     O2782   1.964   1_655  S
Cd2028     O2032   2.075       .  S
Cd2028     O2041   2.121       .  S
O2030     Cd2779   1.964   1_455  S
Cd2031     O2033   2.059       .  S
O2032      C2039   1.276   1_545  A
C2034      O2038   1.253       .  A
C2035      O2776   1.274   1_545  A
O2036      C2772   1.273       .  A
C2040      C2065   1.468       .  S
C2040      O2793   1.279       .  A
O2041      C2792   1.279   1_545  A
O2042      C2058   1.277       .  A
O2042     Zn2048   2.048       .  S
C2043      O2811   1.271       .  A
O2044     Cd2051   2.192       .  S
O2045      C2063   1.270       .  A
O2045     Cd2054   2.056       .  S
O2046     Cd2050   2.133   1_455  S
O2047      C2810   1.270       .  A
O2047     Cd2050   2.055       .  S
Zn2048     O2059   1.956   1_545  S
Zn2048     O2061   1.894       .  S
Zn2048     O2053   1.864   1_545  S
O2049      C2060   1.286       .  A
O2049     Cd2054   2.087       .  S
Cd2050     O2052   2.007   1_655  S
Cd2050     O2805   1.946       .  S
Cd2051     O2055   2.135       .  S
Cd2051     O2064   2.127       .  S
O2053     Cd2802   1.946       .  S
Cd2054     O2056   2.086       .  S
O2055      C2062   1.268       .  A
C2057      O2061   1.258       .  A
C2058      O2799   1.270       .  A
O2059      C2795   1.271       .  A
C2063      C2074   1.494       .  S
C2063      O2816   1.288       .  A
O2064      C2815   1.288   1_545  A
C2065      C2066   1.435       .  A
C2065      C2070   1.381       .  A
C2066      C2067   1.410       .  A
C2066      H2071   1.075       .  S
C2067      C2068   1.407       .  A
C2068      C2069   1.421       .  A
C2068      H2072   1.072       .  S
C2069      C2070   1.380       .  A
C2069      C2099   1.461       .  S
C2070      H2825   1.085       .  S
H2073      C2822   1.085   1_545  S
C2074      C2075   1.427       .  A
C2074      C2079   1.396       .  A
C2075      C2076   1.422       .  A
C2075      H2080   1.082       .  S
C2076      C2077   1.430       .  A
C2077      C2078   1.414       .  A
C2077      H2081   1.081       .  S
C2078      C2079   1.392       .  A
C2078      C2122   1.489       .  S
C2079      H2834   1.084       .  S
H2082      C2831   1.084   1_545  S
O2083      C2099   1.265       .  A
O2083     Zn2089   1.926       .  S
C2084      C2502   1.447       .  S
C2084      O2852   1.266       .  A
C2084      O2097   1.268   1_565  A
O2085      C2098   1.278       .  A
O2085     Cd2092   2.109       .  S
O2086      C2104   1.256   1_565  A
O2086     Cd2095   1.950   1_565  S
O2087      C2101   1.289       .  A
O2087     Cd2091   2.108       .  S
O2088      C2851   1.289   1_545  A
O2088     Cd2091   2.100       .  S
Zn2089     O2100   2.013       .  S
Zn2089     O2102   1.912       .  S
Zn2089     O2094   1.885       .  S
O2090      C2101   1.253       .  A
O2090     Cd2095   1.973       .  S
Cd2091     O2093   2.099       .  S
Cd2091     O2846   1.960   1_545  S
Cd2092     O2096   2.083       .  S
Cd2092     O2105   2.109       .  S
Cd2092     O2094   1.988       .  S
O2093      C2855   1.272       .  A
O2094     Cd2843   1.960       .  S
O2094     Cd2847   1.903       .  S
Cd2095     O2097   2.004       .  S
Cd2095     O2846   1.903   1_545  S
O2096      C2103   1.277       .  A
C2098      O2102   1.259       .  A
C2099      O2840   1.289       .  A
O2100      C2836   1.266       .  A
C2101      C2133   1.466       .  S
C2103      C2859   1.475       .  S
C2103      O2845   1.272       .  A
C2104      O2857   1.278   1_545  A
O2105      C2856   1.278       .  A
O2106      C2122   1.283       .  A
O2106     Zn2112   2.018       .  S
C2107      C2855   1.475       .  S
C2107      O2875   1.278       .  A
C2107      O2120   1.282       .  A
O2108      C2121   1.279       .  A
O2108     Cd2115   2.087       .  S
O2109      C2127   1.262       .  A
O2109     Cd2118   1.981       .  S
O2110      C2124   1.272       .  A
O2110     Cd2114   2.032       .  S
O2111      C2874   1.285       .  A
O2111     Cd2114   2.122   1_565  S
Zn2112     O2123   2.017       .  S
Zn2112     O2125   1.960       .  S
Zn2112     O2117   1.853       .  S
O2113      C2124   1.284       .  A
O2113     Cd2118   2.130       .  S
Cd2114     O2116   1.998       .  S
Cd2114     O2869   1.925       .  S
Cd2115     O2119   2.118       .  S
Cd2115     O2128   2.127       .  S
Cd2115     O2117   2.041       .  S
O2116      C2878   1.238   1_545  A
O2117     Cd2866   1.925       .  S
O2117     Cd2870   1.932       .  S
Cd2118     O2120   2.085       .  S
Cd2118     O2869   1.932       .  S
O2119      C2126   1.264       .  A
C2121      O2125   1.267       .  A
C2122      O2863   1.285       .  A
O2123      C2859   1.278       .  A
C2124      C2138   1.485       .  S
C2126      C2460   1.447       .  S
C2126      O2868   1.238       .  A
C2127      O2880   1.288   1_545  A
O2128      C2879   1.288       .  A
C2129      C2130   1.441       .  A
C2129      C2134   1.373       .  A
C2129      C2226   1.478       .  S
C2130      C2131   1.420       .  A
C2130      H2135   1.077       .  S
C2131      C2132   1.416       .  A
C2132      C2133   1.432       .  A
C2132      H2136   1.078       .  S
C2133      C2134   1.375       .  A
C2134      H2137   1.086       .  S
C2138      C2139   1.381       .  A
C2138      C2143   1.431       .  A
C2139      C2140   1.391       .  A
C2139      H2144   1.086       .  S
C2140      C2141   1.427       .  A
C2140      C2249   1.482       .  S
C2141      C2142   1.421       .  A
C2141      H2145   1.083       .  S
C2142      C2143   1.428       .  A
C2143      H2146   1.083       .  S
O2147      C2163   1.277       .  A
O2147     Zn2153   1.959       .  S
C2148      O2164   1.269       .  A
O2149     Cd2156   2.152       .  S
O2150      C2168   1.250       .  A
O2150     Cd2159   1.894       .  S
O2151     Cd2155   2.061       .  S
O2152      C2163   1.272       .  A
O2152     Cd2155   2.030       .  S
Zn2153     O2164   2.021       .  S
Zn2153     O2166   1.783       .  S
Zn2153     O2158   1.887       .  S
O2154      C2165   1.274       .  A
O2154     Cd2159   1.999   1_455  S
Cd2155     O2157   2.057       .  S
Cd2155     O2158   1.970       .  S
Cd2156     O2160   2.107       .  S
Cd2156     O2169   2.154       .  S
Cd2159     O2161   2.062       .  S
O2160      C2167   1.283   1_655  A
C2162      O2166   1.240       .  A
C2163      C2193   1.454       .  S
C2168      O2169   1.288       .  A
O2170      C2186   1.270       .  A
O2170     Zn2176   1.993       .  S
C2171      O2187   1.271       .  A
C2171      O2184   1.275       .  A
O2172     Cd2179   2.205       .  S
O2173     Cd2182   1.973       .  S
O2174      C2188   1.275       .  A
O2174     Cd2178   2.058       .  S
O2175     Cd2178   2.036       .  S
Zn2176     O2187   2.031       .  S
Zn2176     O2189   1.946       .  S
Zn2176     O2181   1.920       .  S
O2177     Cd2182   2.109       .  S
Cd2178     O2180   2.041       .  S
Cd2179     O2183   2.197       .  S
Cd2179     O2192   2.189       .  S
O2180      C2190   1.271       .  A
O2181     Cd2182   1.978       .  S
Cd2182     O2184   2.067       .  S
O2183      C2190   1.299       .  A
C2185      O2189   1.268       .  A
C2190      C2204   1.508       .  S
C2191      O2192   1.287       .  A
C2193      C2194   1.447       .  A
C2193      C2198   1.379       .  A
C2194      C2195   1.424       .  A
C2194      H2199   1.081       .  S
C2195      C2196   1.412       .  A
C2196      C2197   1.417       .  A
C2196      H2200   1.077       .  S
C2197      C2198   1.364       .  A
C2197      C2232   1.466       .  S
C2198      H2201   1.086       .  S
C2202      C2203   1.398       .  A
C2202      C2207   1.413       .  A
C2202      C2255   1.493       .  S
C2203      C2204   1.413       .  A
C2203      H2208   1.083       .  S
C2204      C2205   1.446       .  A
C2205      C2206   1.424       .  A
C2205      H2209   1.082       .  S
C2206      C2207   1.406       .  A
C2207      H2210   1.080       .  S
O2211      C2227   1.265       .  A
O2211     Zn2217   1.987       .  S
C2212      C2254   1.462       .  S
C2212      O2228   1.274       .  A
C2212      O2225   1.268       .  A
O2213      C2226   1.285       .  A
O2213     Cd2220   2.141       .  S
O2214      C2232   1.251       .  A
O2214     Cd2223   1.910       .  S
O2215      C2229   1.271       .  A
O2215     Cd2219   2.070       .  S
O2216      C2227   1.283       .  A
O2216     Cd2219   2.046       .  S
Zn2217     O2228   2.039       .  S
Zn2217     O2230   1.885       .  S
Zn2217     O2222   1.907       .  S
O2218      C2229   1.272       .  A
O2218     Cd2223   2.008       .  S
Cd2219     O2221   2.043       .  S
Cd2219     O2222   1.965       .  S
Cd2220     O2224   2.098       .  S
Cd2220     O2233   2.130       .  S
Cd2220     O2222   1.979       .  S
O2221      C2231   1.262       .  A
O2222     Cd2223   1.899       .  S
Cd2223     O2225   2.009       .  S
O2224      C2231   1.278       .  A
C2226      O2230   1.248       .  A
C2232      O2233   1.286       .  A
O2234      C2250   1.285       .  A
O2234     Zn2240   2.020       .  S
C2235      O2251   1.280       .  A
C2235      O2248   1.272       .  A
O2236      C2249   1.284       .  A
O2236     Cd2243   2.106       .  S
O2237      C2255   1.264       .  A
O2237     Cd2246   1.976       .  S
O2238      C2252   1.274       .  A
O2238     Cd2242   2.077       .  S
O2239      C2250   1.285       .  A
O2239     Cd2242   2.149       .  S
Zn2240     O2251   2.031       .  S
Zn2240     O2253   1.975       .  S
Zn2240     O2245   1.888       .  S
O2241      C2252   1.279       .  A
O2241     Cd2246   2.093       .  S
Cd2242     O2244   2.005       .  S
Cd2242     O2245   1.953       .  S
Cd2243     O2247   2.138       .  S
Cd2243     O2256   2.175       .  S
Cd2243     O2245   2.055       .  S
O2244      C2254   1.245       .  A
O2245     Cd2246   1.922       .  S
Cd2246     O2248   2.020       .  S
O2247      C2254   1.266       .  A
C2249      O2253   1.264       .  A
C2255      O2256   1.289       .  A
C2257      C2258   1.534       .  S
C2257      C2263   1.554       .  S
C2257      C2261   1.539       .  S
C2257      C2343   1.598       .  S
C2258      H2641   1.080       .  S
C2258      C2635   1.382       .  D
C2259      C2260   1.579       .  S
C2259      C2634   1.382       .  D
C2259      C2582   1.546       .  S
C2260      C2640   1.556       .  S
C2260      C2262   1.579       .  S
C2260      H2266   1.109       .  S
C2261      H2643   1.080       .  S
C2261      C2638   1.374       .  D
C2262      C2637   1.374       .  D
C2262      C2452   1.537       .  S
C2263      H2268   1.067       .  S
C2263      C2264   1.382       .  D
C2264      C2636   1.556       .  S
C2264      C2309   1.532       .  S
H2265      C2634   1.080       .  S
H2267      C2637   1.080       .  S
C2269      C2270   1.530       .  S
C2269      C2275   1.546       .  S
C2269      C2273   1.546       .  S
C2269      C2354   1.564       .  S
C2270      H2277   1.079       .  S
C2270      C2271   1.373       .  D
C2271      C2272   1.590       .  S
C2271      C2571   1.558       .  S
C2272      C2276   1.561       .  S
C2272      C2274   1.583       .  S
C2272      H2278   1.097       .  S
C2273      H2279   1.085       .  S
C2273      C2274   1.362       .  D
C2274      C2443   1.537       .  S
C2275      H2280   1.086       .  S
C2275      C2276   1.378       .  D
C2276      C2316   1.514       .  S
C2281      C2658   1.528       .  S
C2281      C2287   1.553       .  S
C2281      C2661   1.549       .  S
C2281      C2390   1.584       .  S
C2282      C2657   1.528       .  S
C2282      H2289   1.079       .  S
C2282      C2283   1.375       .  D
C2283      C2284   1.583       .  S
C2283      C2325   1.557       .  S
C2284      C2664   1.576       .  S
C2284      C2286   1.598       .  S
C2284      H2290   1.106       .  S
C2285      C2657   1.549       .  S
C2285      H2291   1.081       .  S
C2285      C2286   1.367       .  D
C2286      C2363   1.554       .  S
C2287      H2292   1.086       .  S
C2287      C2288   1.383       .  D
C2288      C2660   1.576       .  S
C2288      C2518   1.537       .  S
C2293      C2294   1.538       .  S
C2293      C2299   1.558       .  S
C2293      C2297   1.529       .  S
C2293      C2381   1.584       .  S
C2294      H2301   1.082       .  S
C2294      C2295   1.379       .  D
C2295      C2296   1.581       .  S
C2295      C2334   1.542       .  S
C2296      C2300   1.569       .  S
C2296      C2298   1.590       .  S
C2296      H2302   1.110       .  S
C2297      H2303   1.084       .  S
C2297      C2298   1.367       .  D
C2298      C2372   1.529       .  S
C2299      H2304   1.073       .  S
C2299      C2300   1.382       .  D
C2300      C2507   1.550       .  S
C2305      C2306   1.373       .  A
C2305      C2310   1.434       .  A
C2305      C2538   1.467       .  S
C2306      C2307   1.384       .  A
C2307      C2308   1.435       .  A
C2307      C2413   1.465       .  S
C2308      C2309   1.414       .  A
C2308      H2312   1.076       .  S
C2309      C2310   1.400       .  A
C2310      H2313   1.083       .  S
C2314      C2315   1.413       .  A
C2314      C2319   1.395       .  A
C2314      C2564   1.476       .  S
C2315      C2316   1.415       .  A
C2315      H2320   1.084       .  S
C2316      C2317   1.425       .  A
C2317      C2318   1.423       .  A
C2317      H2321   1.083       .  S
C2318      C2319   1.395       .  A
C2318      C2436   1.491       .  S
C2323      C2324   1.414       .  A
C2323      C2328   1.366       .  A
C2323      C2544   1.473       .  S
C2324      C2325   1.406       .  A
C2324      H2329   1.074       .  S
C2325      C2326   1.425       .  A
C2326      C2327   1.447       .  A
C2326      H2330   1.082       .  S
C2327      C2328   1.391       .  A
C2327      C2603   1.464       .  S
C2328      H2331   1.085       .  S
C2332      C2333   1.410       .  A
C2332      C2337   1.379       .  A
C2332      C2547   1.475       .  S
C2333      C2334   1.425       .  A
C2333      H2338   1.083       .  S
C2334      C2335   1.435       .  A
C2335      C2336   1.439       .  A
C2335      H2339   1.082       .  S
C2336      C2337   1.394       .  A
C2336      C2626   1.493       .  S
C2337      H2340   1.087       .  S
C2341      C2342   1.417       .  A
C2341      C2346   1.374       .  A
C2341      C2474   1.458       .  S
C2342      C2343   1.410       .  A
C2342      H2347   1.065       .  S
C2343      C2344   1.433       .  A
C2344      C2345   1.437       .  A
C2344      H2348   1.076       .  S
C2345      C2346   1.379       .  A
C2345      C2605   1.470       .  S
C2346      H2349   1.086       .  S
C2350      C2351   1.394       .  A
C2350      C2355   1.423       .  A
C2350      C2628   1.485       .  S
C2351      C2352   1.396       .  A
C2351      H2356   1.084       .  S
C2352      C2353   1.410       .  A
C2352      C2497   1.472       .  S
C2353      C2354   1.408       .  A
C2353      H2357   1.083       .  S
C2354      C2355   1.428       .  A
C2355      H2358   1.080       .  S
C2359      C2360   1.377       .  A
C2359      C2364   1.432       .  A
C2359      C2480   1.460       .  S
C2360      C2361   1.375       .  A
C2361      C2362   1.431       .  A
C2361      C2411   1.470       .  S
C2362      C2363   1.430       .  A
C2362      H2366   1.077       .  S
C2363      C2364   1.404       .  A
C2364      H2367   1.071       .  S
C2368      C2369   1.396       .  A
C2368      C2373   1.426       .  A
C2368      C2503   1.475       .  S
C2369      C2370   1.389       .  A
C2370      C2371   1.420       .  A
C2370      C2434   1.479       .  S
C2371      C2372   1.426       .  A
C2371      H2375   1.082       .  S
C2372      C2373   1.404       .  A
C2373      H2376   1.083       .  S
C2377      C2378   1.371       .  A
C2377      C2382   1.421       .  A
C2377      C2410   1.456       .  S
C2378      C2379   1.376       .  A
C2379      C2380   1.436       .  A
C2379      C2541   1.463   1_655  S
C2380      C2381   1.432       .  A
C2380      H2384   1.078       .  S
C2381      C2382   1.404       .  A
C2382      H2385   1.077       .  S
C2386      C2387   1.410       .  A
C2386      C2391   1.428       .  A
C2386      C2433   1.500       .  S
C2387      C2388   1.413       .  A
C2388      C2389   1.434       .  A
C2388      C2561   1.509       .  S
C2389      C2390   1.417       .  A
C2389      H2393   1.080       .  S
C2390      C2391   1.404       .  A
C2391      H2394   1.079       .  S
O2395      C2411   1.271       .  A
O2395     Zn2401   1.954       .  S
O2397     Cd2404   2.102       .  S
O2398      C2416   1.251   1_545  A
O2398     Cd2407   1.961   1_545  S
O2399     Cd2403   2.058       .  S
O2400     Cd2403   2.070       .  S
Zn2401     O2412   1.991   1_655  S
Zn2401     O2414   1.853       .  S
Zn2401     O2406   1.850   1_655  S
O2402      C2413   1.262       .  A
O2402     Cd2407   2.021       .  S
Cd2403     O2405   2.058       .  S
Cd2404     O2408   2.075       .  S
Cd2404     O2417   2.121       .  S
Cd2407     O2409   2.059       .  S
O2408      C2415   1.276       .  A
C2410      O2414   1.253       .  A
C2416      C2441   1.468       .  S
O2418      C2434   1.277       .  A
O2418     Zn2424   2.048       .  S
O2420     Cd2427   2.192       .  S
O2421      C2439   1.270       .  A
O2421     Cd2430   2.056       .  S
O2422     Cd2426   2.133   1_455  S
O2423     Cd2426   2.055   1_545  S
Zn2424     O2435   1.955       .  S
Zn2424     O2437   1.894       .  S
Zn2424     O2429   1.864       .  S
O2425      C2436   1.286       .  A
O2425     Cd2430   2.087       .  S
Cd2426     O2428   2.007   1_665  S
Cd2427     O2431   2.135       .  S
Cd2427     O2440   2.128       .  S
Cd2430     O2432   2.086       .  S
O2431      C2438   1.268       .  A
C2433      O2437   1.258       .  A
C2439      C2450   1.494       .  S
C2441      C2442   1.435       .  A
C2441      C2446   1.381       .  A
C2442      C2443   1.410       .  A
C2442      H2447   1.075       .  S
C2443      C2444   1.408       .  A
C2444      C2445   1.421       .  A
C2444      H2448   1.072       .  S
C2445      C2446   1.380       .  A
C2445      C2475   1.461       .  S
C2450      C2451   1.427       .  A
C2450      C2455   1.396       .  A
C2451      C2452   1.422       .  A
C2451      H2456   1.082       .  S
C2452      C2453   1.430       .  A
C2453      C2454   1.414       .  A
C2453      H2457   1.081       .  S
C2454      C2455   1.392       .  A
C2454      C2498   1.488       .  S
O2459      C2475   1.265       .  A
O2459     Zn2465   1.927       .  S
C2460      O2473   1.268   1_556  A
O2461      C2474   1.278       .  A
O2461     Cd2468   2.108       .  S
O2462      C2480   1.256       .  A
O2462     Cd2471   1.950       .  S
O2463      C2477   1.289       .  A
O2463     Cd2467   2.108       .  S
O2464     Cd2467   2.100       .  S
Zn2465     O2476   2.014       .  S
Zn2465     O2478   1.912       .  S
Zn2465     O2470   1.885       .  S
O2466      C2477   1.253       .  A
O2466     Cd2471   1.973       .  S
Cd2467     O2469   2.099       .  S
Cd2468     O2472   2.083   1_565  S
Cd2468     O2481   2.108       .  S
Cd2468     O2470   1.988       .  S
Cd2471     O2473   2.004       .  S
O2472      C2479   1.277       .  A
C2474      O2478   1.259       .  A
C2477      C2509   1.466       .  S
O2482      C2498   1.283       .  A
O2482     Zn2488   2.019       .  S
C2483      O2496   1.282       .  A
O2484      C2497   1.279       .  A
O2484     Cd2491   2.087       .  S
O2485      C2503   1.262       .  A
O2485     Cd2494   1.981       .  S
O2486      C2500   1.272       .  A
O2486     Cd2490   2.033       .  S
O2487     Cd2490   2.122       .  S
Zn2488     O2499   2.017   1_565  S
Zn2488     O2501   1.960       .  S
Zn2488     O2493   1.853   1_565  S
O2489      C2500   1.284       .  A
O2489     Cd2494   2.130       .  S
Cd2490     O2492   1.998       .  S
Cd2491     O2495   2.118       .  S
Cd2491     O2504   2.127       .  S
Cd2491     O2493   2.041   1_565  S
Cd2494     O2496   2.085       .  S
O2495      C2502   1.264       .  A
C2497      O2501   1.267       .  A
C2500      C2514   1.485       .  S
C2505      C2506   1.441       .  A
C2505      C2510   1.373       .  A
C2505      C2602   1.478       .  S
C2506      C2507   1.420       .  A
C2506      H2511   1.077       .  S
C2507      C2508   1.416       .  A
C2508      C2509   1.432       .  A
C2508      H2512   1.078       .  S
C2509      C2510   1.375       .  A
C2510      H2513   1.086       .  S
C2514      C2515   1.381       .  A
C2514      C2519   1.431       .  A
C2515      C2516   1.391       .  A
C2515      H2520   1.086       .  S
C2516      C2517   1.426       .  A
C2516      C2625   1.482       .  S
C2517      C2518   1.421       .  A
C2517      H2521   1.083       .  S
C2518      C2519   1.428       .  A
C2519      H2522   1.083       .  S
O2523      C2539   1.277       .  A
O2523     Zn2529   1.959       .  S
C2524      O2540   1.269   1_556  A
O2525     Cd2532   2.152       .  S
O2526      C2544   1.250       .  A
O2526     Cd2535   1.894       .  S
O2527     Cd2531   2.061       .  S
O2528      C2539   1.272       .  A
O2528     Cd2531   2.030       .  S
Zn2529     O2540   2.021       .  S
Zn2529     O2542   1.783       .  S
Zn2529     O2534   1.886       .  S
O2530      C2541   1.274       .  A
O2530     Cd2535   1.999   1_455  S
Cd2531     O2533   2.057       .  S
Cd2531     O2534   1.970       .  S
Cd2532     O2536   2.107       .  S
Cd2532     O2545   2.154       .  S
Cd2535     O2537   2.062       .  S
O2536      C2543   1.283   1_655  A
C2538      O2542   1.240       .  A
C2539      C2569   1.454       .  S
C2544      O2545   1.288       .  A
O2546      C2562   1.270       .  A
O2546     Zn2552   1.993       .  S
C2547      O2563   1.271       .  A
C2547      O2560   1.276       .  A
O2548     Cd2555   2.206       .  S
O2549     Cd2558   1.972       .  S
O2550      C2564   1.275       .  A
O2550     Cd2554   2.058       .  S
O2551     Cd2554   2.036       .  S
Zn2552     O2563   2.032       .  S
Zn2552     O2565   1.947       .  S
Zn2552     O2557   1.920       .  S
O2553     Cd2558   2.109       .  S
Cd2554     O2556   2.041       .  S
Cd2555     O2559   2.198       .  S
Cd2555     O2568   2.189       .  S
O2556      C2566   1.271       .  A
O2557     Cd2558   1.978       .  S
Cd2558     O2560   2.067       .  S
O2559      C2566   1.299       .  A
C2561      O2565   1.268       .  A
C2566      C2580   1.508       .  S
C2567      O2568   1.287       .  A
C2569      C2570   1.447       .  A
C2569      C2574   1.379       .  A
C2570      C2571   1.424       .  A
C2570      H2575   1.081       .  S
C2571      C2572   1.412       .  A
C2572      C2573   1.417       .  A
C2572      H2576   1.077       .  S
C2573      C2574   1.364       .  A
C2573      C2608   1.466       .  S
C2574      H2577   1.086       .  S
C2578      C2579   1.398       .  A
C2578      C2583   1.413       .  A
C2578      C2631   1.493       .  S
C2579      C2580   1.413       .  A
C2579      H2584   1.083       .  S
C2580      C2581   1.446       .  A
C2581      C2582   1.424       .  A
C2581      H2585   1.082       .  S
C2582      C2583   1.406       .  A
C2583      H2586   1.080       .  S
O2587      C2603   1.265       .  A
O2587     Zn2593   1.987       .  S
C2588      C2630   1.461       .  S
C2588      O2604   1.274       .  A
C2588      O2601   1.268       .  A
O2589      C2602   1.285       .  A
O2589     Cd2596   2.141       .  S
O2590      C2608   1.251       .  A
O2590     Cd2599   1.910       .  S
O2591      C2605   1.271       .  A
O2591     Cd2595   2.069       .  S
O2592      C2603   1.283       .  A
O2592     Cd2595   2.046       .  S
Zn2593     O2604   2.039       .  S
Zn2593     O2606   1.885       .  S
Zn2593     O2598   1.907       .  S
O2594      C2605   1.271       .  A
O2594     Cd2599   2.008       .  S
Cd2595     O2597   2.043       .  S
Cd2595     O2598   1.965       .  S
Cd2596     O2600   2.099       .  S
Cd2596     O2609   2.130       .  S
Cd2596     O2598   1.980       .  S
O2597      C2607   1.262       .  A
O2598     Cd2599   1.899       .  S
Cd2599     O2601   2.009       .  S
O2600      C2607   1.278       .  A
C2602      O2606   1.249       .  A
C2607      C2987   1.464   1_554  S
C2608      O2609   1.286       .  A
O2610      C2626   1.285       .  A
O2610     Zn2616   2.019       .  S
C2611      C2983   1.464       .  S
C2611      O2627   1.280       .  A
C2611      O2624   1.272       .  A
O2612      C2625   1.284       .  A
O2612     Cd2619   2.105       .  S
O2613      C2631   1.264       .  A
O2613     Cd2622   1.976       .  S
O2614      C2628   1.274       .  A
O2614     Cd2618   2.077       .  S
O2615      C2626   1.285       .  A
O2615     Cd2618   2.150       .  S
Zn2616     O2627   2.031       .  S
Zn2616     O2629   1.975       .  S
Zn2616     O2621   1.888       .  S
O2617      C2628   1.279       .  A
O2617     Cd2622   2.093       .  S
Cd2618     O2620   2.005       .  S
Cd2618     O2621   1.953       .  S
Cd2619     O2623   2.138       .  S
Cd2619     O2632   2.175       .  S
Cd2619     O2621   2.055       .  S
O2620      C2630   1.245       .  A
O2621     Cd2622   1.921       .  S
Cd2622     O2624   2.020       .  S
O2623      C2630   1.266       .  A
C2625      O2629   1.264       .  A
C2631      O2632   1.289       .  A
C2633      C2634   1.534       .  S
C2633      C2639   1.554       .  S
C2633      C2637   1.539       .  S
C2633      C2719   1.598       .  S
C2635      C2636   1.579       .  S
C2635      C2958   1.546   1_554  S
C2636      C2638   1.579       .  S
C2636      H2642   1.109       .  S
C2638      C2828   1.537   1_554  S
C2639      H2644   1.067       .  S
C2639      C2640   1.382       .  D
C2640      C2685   1.532       .  S
C2645      C2646   1.530       .  S
C2645      C2651   1.546       .  S
C2645      C2649   1.546       .  S
C2645      C2730   1.564       .  S
C2646      H2653   1.079       .  S
C2646      C2647   1.373       .  D
C2647      C2648   1.590       .  S
C2647      C2947   1.558       .  S
C2648      C2652   1.561       .  S
C2648      C2650   1.583       .  S
C2648      H2654   1.097       .  S
C2649      H2655   1.085       .  S
C2649      C2650   1.362       .  D
C2650      C2819   1.537       .  S
C2651      H2656   1.086       .  S
C2651      C2652   1.378       .  D
C2652      C2692   1.514       .  S
C2657      C2663   1.553   1_554  S
C2657      C2766   1.584   1_554  S
C2658      H2665   1.079       .  S
C2658      C2659   1.375       .  D
C2659      C2660   1.583       .  S
C2659      C2701   1.557       .  S
C2660      C2662   1.598       .  S
C2660      H2666   1.106       .  S
C2661      H2667   1.081       .  S
C2661      C2662   1.367       .  D
C2662      C2739   1.554       .  S
C2663      H2668   1.086       .  S
C2663      C2664   1.383   1_556  D
C2664      C2894   1.537   1_554  S
C2669      C2670   1.538       .  S
C2669      C2675   1.558       .  S
C2669      C2673   1.529       .  S
C2669      C2757   1.584       .  S
C2670      H2677   1.082       .  S
C2670      C2671   1.379       .  D
C2671      C2672   1.581       .  S
C2671      C2710   1.542       .  S
C2672      C2676   1.569       .  S
C2672      C2674   1.590       .  S
C2672      H2678   1.110       .  S
C2673      H2679   1.084       .  S
C2673      C2674   1.367       .  D
C2674      C2748   1.529       .  S
C2675      H2680   1.073       .  S
C2675      C2676   1.382       .  D
C2676      C2883   1.550       .  S
C2681      C2682   1.373       .  A
C2681      C2686   1.434       .  A
C2681      C2914   1.467       .  S
C2682      C2683   1.384       .  A
C2683      C2684   1.435       .  A
C2683      C2789   1.465       .  S
C2684      C2685   1.414       .  A
C2684      H2688   1.076       .  S
C2685      C2686   1.400       .  A
C2686      H2689   1.083       .  S
C2690      C2691   1.413       .  A
C2690      C2695   1.395       .  A
C2690      C2940   1.476       .  S
C2691      C2692   1.415       .  A
C2691      H2696   1.084       .  S
C2692      C2693   1.425       .  A
C2693      C2694   1.423       .  A
C2693      H2697   1.083       .  S
C2694      C2695   1.395       .  A
C2694      C2812   1.491       .  S
C2699      C2700   1.414       .  A
C2699      C2704   1.366       .  A
C2699      C2920   1.473       .  S
C2700      C2701   1.406       .  A
C2700      H2705   1.074       .  S
C2701      C2702   1.425       .  A
C2702      C2703   1.447       .  A
C2702      H2706   1.082       .  S
C2703      C2704   1.391       .  A
C2703      C2979   1.464       .  S
C2704      H2707   1.085       .  S
C2708      C2709   1.410       .  A
C2708      C2713   1.379       .  A
C2708      C2923   1.475       .  S
C2709      C2710   1.425       .  A
C2709      H2714   1.083       .  S
C2710      C2711   1.435       .  A
C2711      C2712   1.439       .  A
C2711      H2715   1.082       .  S
C2712      C2713   1.394       .  A
C2712      C3002   1.493       .  S
C2713      H2716   1.087       .  S
C2717      C2718   1.417       .  A
C2717      C2722   1.374       .  A
C2717      C2850   1.458       .  S
C2718      C2719   1.410       .  A
C2718      H2723   1.065       .  S
C2719      C2720   1.433       .  A
C2720      C2721   1.437       .  A
C2720      H2724   1.076       .  S
C2721      C2722   1.379       .  A
C2721      C2981   1.470       .  S
C2722      H2725   1.086       .  S
C2726      C2727   1.394       .  A
C2726      C2731   1.423       .  A
C2726      C3004   1.485       .  S
C2727      C2728   1.396       .  A
C2727      H2732   1.084       .  S
C2728      C2729   1.410       .  A
C2728      C2873   1.472       .  S
C2729      C2730   1.408       .  A
C2729      H2733   1.083       .  S
C2730      C2731   1.428       .  A
C2731      H2734   1.080       .  S
C2735      C2736   1.377       .  A
C2735      C2740   1.432       .  A
C2735      C2856   1.460       .  S
C2736      C2737   1.375       .  A
C2737      C2738   1.431       .  A
C2737      C2787   1.470       .  S
C2738      C2739   1.430       .  A
C2738      H2742   1.077       .  S
C2739      C2740   1.404       .  A
C2740      H2743   1.071       .  S
C2744      C2745   1.396       .  A
C2744      C2749   1.426       .  A
C2744      C2879   1.475       .  S
C2745      C2746   1.389       .  A
C2746      C2747   1.420       .  A
C2746      C2810   1.479       .  S
C2747      C2748   1.426       .  A
C2747      H2751   1.082       .  S
C2748      C2749   1.404       .  A
C2749      H2752   1.083       .  S
C2753      C2754   1.371       .  A
C2753      C2758   1.421       .  A
C2753      C2786   1.456       .  S
C2754      C2755   1.376       .  A
C2755      C2756   1.436       .  A
C2755      C2917   1.463   1_655  S
C2756      C2757   1.432       .  A
C2756      H2760   1.078       .  S
C2757      C2758   1.404       .  A
C2758      H2761   1.077       .  S
C2762      C2763   1.410       .  A
C2762      C2767   1.428       .  A
C2762      C2809   1.500       .  S
C2763      C2764   1.413       .  A
C2764      C2765   1.434       .  A
C2764      C2937   1.509       .  S
C2765      C2766   1.417       .  A
C2765      H2769   1.080       .  S
C2766      C2767   1.404       .  A
C2767      H2770   1.079       .  S
O2771      C2787   1.271       .  A
O2771     Zn2777   1.954       .  S
O2773     Cd2780   2.102       .  S
O2774      C2792   1.251   1_545  A
O2774     Cd2783   1.961   1_545  S
O2775     Cd2779   2.058       .  S
O2776     Cd2779   2.070       .  S
Zn2777     O2788   1.991   1_655  S
Zn2777     O2790   1.853       .  S
Zn2777     O2782   1.850   1_655  S
O2778      C2789   1.262       .  A
O2778     Cd2783   2.021       .  S
Cd2779     O2781   2.058       .  S
Cd2780     O2784   2.075       .  S
Cd2780     O2793   2.121       .  S
Cd2783     O2785   2.059       .  S
O2784      C2791   1.276       .  A
C2786      O2790   1.253       .  A
C2792      C2817   1.468       .  S
O2794      C2810   1.277       .  A
O2794     Zn2800   2.048       .  S
O2796     Cd2803   2.192       .  S
O2797      C2815   1.270       .  A
O2797     Cd2806   2.056       .  S
O2798     Cd2802   2.133   1_455  S
O2799     Cd2802   2.055   1_545  S
Zn2800     O2811   1.955       .  S
Zn2800     O2813   1.894       .  S
Zn2800     O2805   1.864       .  S
O2801      C2812   1.286       .  A
O2801     Cd2806   2.087       .  S
Cd2802     O2804   2.007   1_665  S
Cd2803     O2807   2.135       .  S
Cd2803     O2816   2.128       .  S
Cd2806     O2808   2.086       .  S
O2807      C2814   1.268       .  A
C2809      O2813   1.258       .  A
C2815      C2826   1.494       .  S
C2817      C2818   1.435       .  A
C2817      C2822   1.381       .  A
C2818      C2819   1.410       .  A
C2818      H2823   1.075       .  S
C2819      C2820   1.408       .  A
C2820      C2821   1.421       .  A
C2820      H2824   1.072       .  S
C2821      C2822   1.380       .  A
C2821      C2851   1.461       .  S
C2826      C2827   1.427       .  A
C2826      C2831   1.396       .  A
C2827      C2828   1.422       .  A
C2827      H2832   1.082       .  S
C2828      C2829   1.430       .  A
C2829      C2830   1.414       .  A
C2829      H2833   1.081       .  S
C2830      C2831   1.392       .  A
C2830      C2874   1.488       .  S
O2835      C2851   1.265       .  A
O2835     Zn2841   1.927       .  S
C2836      O2849   1.268       .  A
O2837      C2850   1.278       .  A
O2837     Cd2844   2.108       .  S
O2838      C2856   1.256       .  A
O2838     Cd2847   1.950       .  S
O2839      C2853   1.289       .  A
O2839     Cd2843   2.108       .  S
O2840     Cd2843   2.100       .  S
Zn2841     O2852   2.014       .  S
Zn2841     O2854   1.912       .  S
Zn2841     O2846   1.885       .  S
O2842      C2853   1.253       .  A
O2842     Cd2847   1.973       .  S
Cd2843     O2845   2.099       .  S
Cd2844     O2848   2.083   1_565  S
Cd2844     O2857   2.108       .  S
Cd2844     O2846   1.988       .  S
Cd2847     O2849   2.004       .  S
O2848      C2855   1.277       .  A
C2850      O2854   1.259       .  A
C2853      C2885   1.466       .  S
O2858      C2874   1.283       .  A
O2858     Zn2864   2.019       .  S
C2859      O2872   1.282       .  A
O2860      C2873   1.279       .  A
O2860     Cd2867   2.087       .  S
O2861      C2879   1.262       .  A
O2861     Cd2870   1.981       .  S
O2862      C2876   1.272       .  A
O2862     Cd2866   2.033       .  S
O2863     Cd2866   2.122       .  S
Zn2864     O2875   2.017   1_565  S
Zn2864     O2877   1.960       .  S
Zn2864     O2869   1.853   1_565  S
O2865      C2876   1.284       .  A
O2865     Cd2870   2.130       .  S
Cd2866     O2868   1.998       .  S
Cd2867     O2871   2.118       .  S
Cd2867     O2880   2.127       .  S
Cd2867     O2869   2.041   1_565  S
Cd2870     O2872   2.085       .  S
O2871      C2878   1.264       .  A
C2873      O2877   1.267       .  A
C2876      C2890   1.485       .  S
C2881      C2882   1.441       .  A
C2881      C2886   1.373       .  A
C2881      C2978   1.478       .  S
C2882      C2883   1.420       .  A
C2882      H2887   1.077       .  S
C2883      C2884   1.416       .  A
C2884      C2885   1.432       .  A
C2884      H2888   1.078       .  S
C2885      C2886   1.375       .  A
C2886      H2889   1.086       .  S
C2890      C2891   1.381       .  A
C2890      C2895   1.431       .  A
C2891      C2892   1.391       .  A
C2891      H2896   1.086       .  S
C2892      C2893   1.426       .  A
C2892      C3001   1.482       .  S
C2893      C2894   1.421       .  A
C2893      H2897   1.083       .  S
C2894      C2895   1.428       .  A
C2895      H2898   1.083       .  S
O2899      C2915   1.277       .  A
O2899     Zn2905   1.959       .  S
C2900      O2916   1.269       .  A
O2901     Cd2908   2.152       .  S
O2902      C2920   1.250       .  A
O2902     Cd2911   1.894       .  S
O2903     Cd2907   2.061       .  S
O2904      C2915   1.272       .  A
O2904     Cd2907   2.030       .  S
Zn2905     O2916   2.021       .  S
Zn2905     O2918   1.783       .  S
Zn2905     O2910   1.886       .  S
O2906      C2917   1.274       .  A
O2906     Cd2911   1.999   1_455  S
Cd2907     O2909   2.057       .  S
Cd2907     O2910   1.970       .  S
Cd2908     O2912   2.107       .  S
Cd2908     O2921   2.154       .  S
Cd2911     O2913   2.062       .  S
O2912      C2919   1.283   1_655  A
C2914      O2918   1.240       .  A
C2915      C2945   1.454       .  S
C2920      O2921   1.288       .  A
O2922      C2938   1.270       .  A
O2922     Zn2928   1.993       .  S
C2923      O2939   1.271       .  A
C2923      O2936   1.276       .  A
O2924     Cd2931   2.206       .  S
O2925     Cd2934   1.972       .  S
O2926      C2940   1.275       .  A
O2926     Cd2930   2.058       .  S
O2927     Cd2930   2.036       .  S
Zn2928     O2939   2.032       .  S
Zn2928     O2941   1.947       .  S
Zn2928     O2933   1.920       .  S
O2929     Cd2934   2.109       .  S
Cd2930     O2932   2.041       .  S
Cd2931     O2935   2.198       .  S
Cd2931     O2944   2.189       .  S
O2932      C2942   1.271       .  A
O2933     Cd2934   1.978       .  S
Cd2934     O2936   2.067       .  S
O2935      C2942   1.299       .  A
C2937      O2941   1.268       .  A
C2942      C2956   1.508       .  S
C2943      O2944   1.287       .  A
C2945      C2946   1.447       .  A
C2945      C2950   1.379       .  A
C2946      C2947   1.424       .  A
C2946      H2951   1.081       .  S
C2947      C2948   1.412       .  A
C2948      C2949   1.417       .  A
C2948      H2952   1.077       .  S
C2949      C2950   1.364       .  A
C2949      C2984   1.466       .  S
C2950      H2953   1.086       .  S
C2954      C2955   1.398       .  A
C2954      C2959   1.413       .  A
C2954      C3007   1.493       .  S
C2955      C2956   1.413       .  A
C2955      H2960   1.083       .  S
C2956      C2957   1.446       .  A
C2957      C2958   1.424       .  A
C2957      H2961   1.082       .  S
C2958      C2959   1.406       .  A
C2959      H2962   1.080       .  S
O2963      C2979   1.265       .  A
O2963     Zn2969   1.987       .  S
C2964      C3006   1.461       .  S
C2964      O2980   1.274       .  A
C2964      O2977   1.268       .  A
O2965      C2978   1.285       .  A
O2965     Cd2972   2.141       .  S
O2966      C2984   1.251       .  A
O2966     Cd2975   1.910       .  S
O2967      C2981   1.271       .  A
O2967     Cd2971   2.069       .  S
O2968      C2979   1.283       .  A
O2968     Cd2971   2.046       .  S
Zn2969     O2980   2.039       .  S
Zn2969     O2982   1.885       .  S
Zn2969     O2974   1.907       .  S
O2970      C2981   1.271       .  A
O2970     Cd2975   2.008       .  S
Cd2971     O2973   2.043       .  S
Cd2971     O2974   1.965       .  S
Cd2972     O2976   2.099       .  S
Cd2972     O2985   2.130       .  S
Cd2972     O2974   1.980       .  S
O2973      C2983   1.262       .  A
O2974     Cd2975   1.899       .  S
Cd2975     O2977   2.009       .  S
O2976      C2983   1.278       .  A
C2978      O2982   1.249       .  A
C2984      O2985   1.286       .  A
O2986      C3002   1.285       .  A
O2986     Zn2992   2.019       .  S
C2987      O3003   1.280       .  A
C2987      O3000   1.272       .  A
O2988      C3001   1.284       .  A
O2988     Cd2995   2.105       .  S
O2989      C3007   1.264       .  A
O2989     Cd2998   1.976       .  S
O2990      C3004   1.274       .  A
O2990     Cd2994   2.077       .  S
O2991      C3002   1.285       .  A
O2991     Cd2994   2.150       .  S
Zn2992     O3003   2.031       .  S
Zn2992     O3005   1.975       .  S
Zn2992     O2997   1.888       .  S
O2993      C3004   1.279       .  A
O2993     Cd2998   2.093       .  S
Cd2994     O2996   2.005       .  S
Cd2994     O2997   1.953       .  S
Cd2995     O2999   2.138       .  S
Cd2995     O3008   2.175       .  S
Cd2995     O2997   2.055       .  S
O2996      C3006   1.245       .  A
O2997     Cd2998   1.921       .  S
Cd2998     O3000   2.020       .  S
O2999      C3006   1.266       .  A
C3001      O3005   1.264       .  A
C3007      O3008   1.289       .  A
