geometry optimzed in LAMMPS
_audit_creation_date              2020-11-30 
_audit_creation_method            'lammps2cif' 
_symmetry_space_group_name_H-M    'P1' 
_symmetry_Int_Tables_number       1 
_symmetry_cell_setting            triclinic 
loop_ 
_symmetry_equiv_pos_as_xyz 
  x,y,z 
_cell_length_a                    44.9586555 
_cell_length_b                    43.98082840038187 
_cell_length_c                    41.68037231416945 
_cell_angle_alpha                 83.89150623796867 
_cell_angle_beta                  105.49922499467071 
_cell_angle_gamma                 94.56759280584237 
loop_ 
_atom_site_label 
_atom_site_type_symbol 
_atom_site_fract_x 
_atom_site_fract_y 
_atom_site_fract_z 
_atom_site_charge 
C1          C  0.45109473  0.14068326  0.56091662     0.82800
N2          N  0.47282422  0.16643999  0.06230261    -0.75500
C3          C  0.46503201  0.19608900  0.06217350     0.85300
N4          N  0.43536185  0.20133188  0.06166871    -0.75400
C5          C  0.41317401  0.17593925  0.56048708     0.85400
N6          N  0.42146360  0.14659566  0.56050164    -0.77100
C7          C  0.44310201  0.15001294  0.29461978     0.82800
N8          N  0.46663387  0.17180188  0.29739316    -0.75500
C9          C  0.46151567  0.20132846  0.30012740     0.85300
N10         N  0.43285442  0.20891508  0.30034102    -0.75400
C11         C  0.40940663  0.18702597  0.29765951     0.85400
N12         N  0.41460297  0.15763101  0.29492305    -0.77100
C13         C  0.29394588  0.40529820  0.06606199     0.82800
N14         N  0.27738365  0.42329805  0.07838002    -0.75500
C15         C  0.28737481  0.45264873  0.08350308     0.85300
N16         N  0.31357710  0.46433226  0.07574651    -0.75400
C17         C  0.33020616  0.44644800  0.06337514     0.85400
N18         N  0.32048174  0.41680948  0.05850134    -0.77100
C19         C  0.29515486  0.40136538  0.32175676     0.82800
N20         N  0.32262263  0.41129197  0.31551772    -0.75500
C21         C  0.33354244  0.44061667  0.32036658     0.85300
N22         N  0.31701227  0.45984545  0.33125552    -0.75400
C23         C  0.28978203  0.44962368  0.33768015     0.85400
N24         N  0.27873647  0.42057905  0.33260768    -0.77100
O25         O  0.01644592  0.44924140  0.14345231    -0.78300
O26         O  0.01471809  0.47714908  0.49901079    -0.63000
O27         O  0.02277567  0.48774143  0.08759670    -1.09600
C28         C  0.41265623  0.48082088  0.04945800     1.08600
O29         O  0.48378387  0.51543727  0.48425483    -0.76200
O30         O  0.45397340  0.04352399  0.02296342    -0.63700
Ni31       Ni  0.04886396  0.46238370  0.12169902     1.34900
C32         C  0.46449360  0.05044728  0.05289120     0.87400
O33         O  0.06295750  0.48656637  0.04751102    -0.76700
O34         O  0.08303846  0.47551565  0.10295672    -0.87000
C35         C  0.00082004  0.49747158  0.47756943     0.86900
O36         O  0.04352403  0.42402487  0.10153534    -0.65200
O37         O  0.41600351  0.48976660  0.02039195    -0.84500
C38         C  0.03251173  0.41656705  0.07185225     0.87800
C39         C  0.08553416  0.48477689  0.07363296     1.09300
H40         H  0.46923434  0.45745135  0.03497083     0.41100
O41         O  0.47669306  0.47837528  0.03849940    -1.07100
O42         O  0.47490430  0.03010688  0.07695864    -0.63800
Ni43       Ni  0.47844538  0.48431835  0.08334440     1.26300
O44         O  0.02128426  0.43641691  0.04756930    -0.64000
O45         O  0.43457473  0.47957466  0.07622688    -0.76300
C46         C  0.49641538  0.46530257  0.15054624     0.87100
O47         O  0.48294016  0.48640135  0.12983235    -0.63500
Ni48       Ni  0.45118364  0.50344598  0.00356022     1.27400
Ni49       Ni  0.01929698  0.48160652  0.04239758     1.26100
H50         H  0.02666743  0.00891376  0.08753753     0.41700
O51         O  0.42653632  0.45285928  0.28453365    -0.78300
O52         O  0.06817885  0.47983114  0.30983527    -0.63000
O53         O  0.48807614  0.45881355  0.32231529    -1.09600
C54         C  0.47079228  0.06386031  0.30400746     1.08600
O55         O  0.07365523  0.02113494  0.33579838    -0.76200
O56         O  0.02970793  0.02129503  0.36906665    -0.63700
Ni57       Ni  0.46154457  0.42782044  0.29843780     1.34900
C58         C  0.01052868  0.50979090  0.38301657     0.87400
O59         O  0.04071115  0.42641648  0.32541989    -0.76700
O60         O  0.49399102  0.39990113  0.31108812    -0.87000
C61         C  0.08632720  0.50007255  0.32533628     0.86900
O62         O  0.46950046  0.43842432  0.25580407    -0.65200
O63         O  0.00053986  0.06505638  0.32151726    -0.84500
C64         C  0.49150645  0.45369238  0.24692498     0.87800
C65         C  0.02477398  0.40185722  0.31747782     1.09300
H66         H  0.01019673  0.01458216  0.27860480     0.41100
O67         O  0.01117764  0.00869068  0.30173521    -1.07100
O68         O  0.48670035  0.50335000  0.36147995    -0.63800
Ni69       Ni  0.47436186  0.49963547  0.31427276     1.26300
O70         O  0.01665376  0.46350288  0.26878566    -0.64000
O71         O  0.45647672  0.03996242  0.29173583    -0.76300
C72         C  0.41730644  0.46721845  0.30446636     0.87100
O73         O  0.43486576  0.48697453  0.32132816    -0.63500
Ni74       Ni  0.03515590  0.04019792  0.32771209     1.27400
Ni75       Ni  0.02828224  0.46773357  0.31611574     1.26100
H76         H  0.49133889  0.45217413  0.34563194     0.41700
C77         C  0.04478412  0.32438412  0.06267951     0.82800
N78         N  0.02277097  0.30063741  0.06183453    -0.75500
C79         C  0.02991018  0.27094231  0.06086669     0.85300
N80         N  0.05932417  0.26534906  0.06074649    -0.75400
C81         C  0.08153540  0.28854249  0.06159840     0.85400
N82         N  0.07408540  0.31792575  0.06264282    -0.77100
C83         C  0.05253137  0.31651856  0.32125581     0.82800
N84         N  0.08095602  0.30856072  0.32108216    -0.75500
C85         C  0.08559459  0.27918309  0.31756845     0.85300
N86         N  0.06175095  0.25768756  0.31410532    -0.75400
C87         C  0.03319048  0.26566298  0.31418010     0.85400
N88         N  0.02861929  0.29513612  0.31767558    -0.77100
C89         C  0.19779137  0.06221978  0.04785985     0.82800
N90         N  0.17108792  0.05080230  0.05503764    -0.75500
C91         C  0.16157833  0.02108185  0.05052092     0.85300
N92         N  0.19565556  0.49864655  0.08366018    -0.75400
C93         C  0.20524919  0.01445532  0.03194746     0.85400
N94         N  0.21492080  0.04396510  0.03659406    -0.77100
C95         C  0.20911140  0.05902567  0.32006657     0.82800
N96         N  0.23172549  0.03906595  0.33105313    -0.75500
C97         C  0.22456282  0.00921349  0.33848274     0.85300
N98         N  0.19861711  0.49931762  0.33701656    -0.75400
C99         C  0.17199714  0.01900597  0.32380918     0.85400
N100        N  0.17912406  0.04914284  0.31664023    -0.77100
O101        O  0.22030423  0.16253379  0.08561684    -0.78300
O102        O  0.25019795  0.30100335  0.07324125    -0.63000
O103        O  0.22000805  0.22014356  0.05230140    -1.09600
C104        C  0.32725127  0.20865627  0.05557348     1.08600
O105        O  0.27330714  0.30364621  0.03222549    -0.76200
O106        O  0.27968183  0.25562579  0.49785421    -0.63700
Ni107      Ni  0.19387127  0.19638710  0.07601265     1.34900
C108        C  0.26143262  0.23330809  0.48701582     0.87400
O109        O  0.19206184  0.27309991  0.06215924    -0.76700
O110        O  0.16493534  0.22834407  0.06747583    -0.87000
C111        C  0.26532744  0.31613911  0.05450543     0.86900
O112        O  0.21243983  0.20850509  0.12009356    -0.65200
O113        O  0.32888680  0.23784462  0.05064465    -0.84500
C114        C  0.23094280  0.23056943  0.13121827     0.87800
C115        C  0.16686232  0.25755748  0.06370289     1.09300
H116        H  0.28578355  0.24442026  0.08888195     0.41100
O117        O  0.27391195  0.24620651  0.06585204    -1.07100
O118        O  0.25287462  0.21483840  0.00610701    -0.63800
Ni119      Ni  0.26039133  0.20586191  0.05431927     1.26300
O120        O  0.24150226  0.25096874  0.11235579    -0.64000
O121        O  0.30210112  0.19312618  0.05729140    -0.76300
C122        C  0.22830579  0.15025094  0.06323309     0.87100
O123        O  0.24398504  0.16537315  0.04513191    -0.63500
Ni124      Ni  0.29985994  0.26984758  0.04189425     1.27400
Ni125      Ni  0.23363201  0.26043383  0.06418832     1.26100
H126        H  0.20828383  0.22204598  0.02918799     0.41700
O127        O  0.22966481  0.16080371  0.33867446    -0.78300
O128        O  0.24828207  0.29850035  0.32561735    -0.63000
O129        O  0.22138488  0.21728842  0.30430403    -1.09600
C130        C  0.32526107  0.21505268  0.29662024     1.08600
O131        O  0.26466514  0.30381726  0.27998010    -0.76200
O132        O  0.27364654  0.26033181  0.24291120    -0.63700
Ni133      Ni  0.19976438  0.19104231  0.33073484     1.34900
C134        C  0.25692162  0.23676095  0.23321535     0.87400
O135        O  0.19290613  0.26675017  0.31802328    -0.76700
O136        O  0.16869330  0.22011777  0.32347400    -0.87000
C137        C  0.26039485  0.31494636  0.30508269     0.86900
O138        O  0.21845116  0.20419147  0.37434017    -0.65200
O139        O  0.32492726  0.24415393  0.29175261    -0.84500
C140        C  0.23622322  0.22695895  0.38463341     0.87800
C141        C  0.16915697  0.24928668  0.31991105     1.09300
H142        H  0.28715946  0.24527216  0.33564258     0.41100
O143        O  0.27337815  0.24671802  0.31341478    -1.07100
O144        O  0.24949827  0.21545396  0.25338329    -0.63800
Ni145      Ni  0.26119406  0.20619240  0.30179243     1.26300
O146        O  0.24530336  0.24759422  0.36484005    -0.64000
O147        O  0.30215920  0.19726275  0.30023418    -0.76300
C148        C  0.23483251  0.14884113  0.31452448     0.87100
O149        O  0.24680085  0.16483652  0.29350046    -0.63500
Ni150      Ni  0.29409972  0.27325090  0.28616674     1.27400
Ni151      Ni  0.23368412  0.25758756  0.31640733     1.26100
H152        H  0.20787543  0.21902124  0.28193685     0.41700
C153        C  0.25231766  0.23093456  0.45091970    -0.10600
C154        C  0.24577150  0.22950010  0.42068891    -0.12200
C155        C  0.24673037  0.23400732  0.19736355    -0.10600
C156        C  0.23989472  0.23257980  0.16721225    -0.12200
C157        C  0.21751295  0.09061895  0.31349436    -0.10600
C158        C  0.22633550  0.11710042  0.31154820    -0.12200
C159        C  0.20906512  0.09300666  0.05381981    -0.10600
C160        C  0.21900515  0.11884391  0.05841931    -0.12200
C161        C  0.11575161  0.27094461  0.31757001    -0.10600
C162        C  0.14082826  0.26280001  0.31818484    -0.12200
C163        C  0.13848010  0.27301253  0.06178443    -0.10200
C164        C  0.11305230  0.28159712  0.06148834    -0.12200
C165        C  0.11421037  0.00227602  0.32171202    -0.10600
C166        C  0.14069713  0.00859881  0.32174834    -0.12200
C167        C  0.04729433  0.34783189  0.32333904    -0.10600
C168        C  0.03970951  0.37359688  0.32239989    -0.12200
C169        C  0.11561926  0.49519796  0.07032988    -0.10600
C170        C  0.13425982  0.00816276  0.05916521    -0.12200
C171        C  0.03380181  0.38390489  0.06604775    -0.10600
C172        C  0.03754432  0.35665822  0.06395025    -0.12200
C173        C  0.00997398  0.50512627  0.41735811    -0.10600
C174        C  0.00687882  0.50164528  0.44533845    -0.12200
C175        C  0.49184404  0.46092266  0.18346823    -0.10600
C176        C  0.49057898  0.45732969  0.21212653    -0.12200
C177        C  0.27062737  0.47031900  0.34546784    -0.10600
C178        C  0.25180328  0.48772140  0.34636315    -0.12200
C179        C  0.28258412  0.37103416  0.31583963    -0.10600
C180        C  0.27124187  0.34573010  0.31099415    -0.12200
C181        C  0.38685991  0.46011205  0.30854074    -0.10600
C182        C  0.36224897  0.45155017  0.31348787    -0.12200
C183        C  0.24940316  0.48947637  0.09440508    -0.10600
C184        C  0.26818462  0.47230157  0.09284442    -0.12200
C185        C  0.28311274  0.37417115  0.06122110    -0.10600
C186        C  0.27380537  0.34792391  0.05811716    -0.12200
C187        C  0.35826585  0.45905846  0.05616776    -0.10600
C188        C  0.38250024  0.47010828  0.05218096    -0.12200
C189        C  0.00770053  0.24307119  0.31016811    -0.10600
C190        C  0.48668146  0.22427651  0.30412107    -0.12200
C191        C  0.44888530  0.11851951  0.29421957    -0.10600
C192        C  0.45620316  0.09244044  0.29697595    -0.12200
C193        C  0.37914744  0.19472266  0.29814053    -0.10600
C194        C  0.35386841  0.20213152  0.29794256    -0.12200
C195        C  0.48797427  0.22238645  0.06245409    -0.10600
C196        C  0.00667213  0.24487550  0.06029185    -0.12200
C197        C  0.46330775  0.08301202  0.05920958    -0.10600
C198        C  0.45919524  0.11017431  0.06133696    -0.12200
C199        C  0.38166076  0.18448586  0.06041282    -0.10600
C200        C  0.35594685  0.19316187  0.05887996    -0.12200
C201        C  0.45127751  0.14235069  0.06205272     0.82800
N202        N  0.47251586  0.16488734  0.56124711    -0.75500
C203        C  0.46456347  0.19444947  0.56124823     0.85300
N204        N  0.43488709  0.19953015  0.56080230    -0.75400
C205        C  0.41356657  0.17780188  0.06141514     0.85400
N206        N  0.42171581  0.14842649  0.06157283    -0.77100
C207        C  0.44471567  0.14784487  0.79954835     0.82800
N208        N  0.46736078  0.17037856  0.80092000    -0.75500
C209        C  0.46126074  0.19984152  0.80235648     0.85300
N210        N  0.43235328  0.20669359  0.80261195    -0.75400
C211        C  0.40969078  0.18404613  0.80139373     0.85400
N212        N  0.41594873  0.15464267  0.79995871    -0.77100
C213        C  0.29587136  0.40162023  0.56967232     0.82800
N214        N  0.27866536  0.41990992  0.58077932    -0.75500
C215        C  0.28852801  0.44929621  0.58585441     0.85300
N216        N  0.31531766  0.46070537  0.57926024    -0.75400
C217        C  0.33258928  0.44253713  0.56806213     0.85400
N218        N  0.32290352  0.41289720  0.56313194    -0.77100
C219        C  0.29169858  0.40149391  0.81942720     0.82800
N220        N  0.31957353  0.41151815  0.81448132    -0.75500
C221        C  0.33061002  0.44054588  0.82056600     0.85300
N222        N  0.31381079  0.45948172  0.83149554    -0.75400
C223        C  0.28610747  0.44913212  0.83665720     0.85400
N224        N  0.27494833  0.42033328  0.83032195    -0.77100
O225        O  0.01388703  0.44840653  0.64481619    -0.78300
O226        O  0.01318278  0.47919425  0.99590477    -0.63000
O227        O  0.02189803  0.48677168  0.58995243    -1.09600
C228        C  0.41406331  0.47806384  0.55214004     1.08600
O229        O  0.48473867  0.51711730  0.98392090    -0.76200
O230        O  0.45403452  0.04189756  0.52093568    -0.63700
Ni231      Ni  0.04734397  0.46167463  0.62492038     1.34900
C232        C  0.46494822  0.04904265  0.55076300     0.87400
O233        O  0.06362158  0.48516700  0.55191647    -0.76700
O234        O  0.08232467  0.47500057  0.60775790    -0.87000
C235        C  0.99953929  0.50033524  0.97552625     0.86900
O236        O  0.04335478  0.42313172  0.60528870    -0.65200
O237        O  0.41666275  0.48569274  0.52253319    -0.84500
C238        C  0.03297454  0.41535110  0.57565779     0.87800
C239        C  0.08565278  0.48382502  0.57866408     1.09300
H240        H  0.47029014  0.45537860  0.53693168     0.41100
O241        O  0.47748104  0.47646514  0.53980476    -1.07100
O242        O  0.47568320  0.02885352  0.57486051    -0.63800
Ni243      Ni  0.48001341  0.48327567  0.58462724     1.26300
O244        O  0.02179375  0.43495124  0.55107972    -0.64000
O245        O  0.43629882  0.47883826  0.57850741    -0.76300
C246        C  0.49834990  0.46588573  0.65207001     0.87100
O247        O  0.48520187  0.48677317  0.63088656    -0.63500
Ni248      Ni  0.45101816  0.50061665  0.50480990     1.27400
Ni249      Ni  0.01962645  0.48015578  0.54524373     1.26100
H250        H  0.02685268  0.00752754  0.58574430     0.41700
O251        O  0.42337942  0.44558513  0.78716212    -0.78300
O252        O  0.06548794  0.47930919  0.81099638    -0.63000
O253        O  0.48609584  0.45523165  0.82244732    -1.09600
C254        C  0.47586304  0.06320457  0.80635637     1.08600
O255        O  0.07363424  0.01165558  0.84384229    -0.76200
O256        O  0.02930722  0.02666406  0.87024270    -0.63700
Ni257      Ni  0.46105668  0.42439895  0.79654930     1.34900
C258        C  0.00641122  0.51362446  0.88037816     0.87400
O259        O  0.03816921  0.42615176  0.82716086    -0.76700
O260        O  0.49524623  0.39850821  0.80434948    -0.87000
C261        C  0.08290437  0.49921330  0.82777888     0.86900
O262        O  0.46703146  0.44165375  0.75469842    -0.65200
O263        O  0.00684293  0.06552959  0.81471848    -0.84500
C264        C  0.49135113  0.45354011  0.74765653     0.87800
C265        C  0.02272701  0.40155274  0.81855444     1.09300
H266        H  0.01012389  0.01322297  0.78014705     0.41100
O267        O  0.01266042  0.00642200  0.80333876    -1.07100
O268        O  0.48404784  0.50061956  0.85998406    -0.63800
Ni269      Ni  0.47204711  0.49589936  0.81298402     1.26300
O270        O  0.01473721  0.46181982  0.76943550    -0.64000
O271        O  0.45966952  0.03802762  0.80391912    -0.76300
C272        C  0.41500321  0.46279012  0.80530652     0.87100
O273        O  0.43289294  0.48336120  0.82026270    -0.63500
Ni274      Ni  0.03886585  0.03703183  0.82834500     1.27400
Ni275      Ni  0.02531778  0.46706834  0.81640463     1.26100
H276        H  0.48815843  0.44849129  0.84556949     0.41700
C277        C  0.04567695  0.32291690  0.56689341     0.82800
N278        N  0.02344349  0.29943925  0.56659626    -0.75500
C279        C  0.03000180  0.26958226  0.56544995     0.85300
N280        N  0.05911757  0.26354351  0.56463084    -0.75400
C281        C  0.08159349  0.28641949  0.56496187     0.85400
N282        N  0.07468105  0.31599480  0.56614542    -0.77100
C283        C  0.05209194  0.31741457  0.82106385     0.82800
N284        N  0.08031051  0.30971344  0.81974685    -0.75500
C285        C  0.08462160  0.28059541  0.81477517     0.85300
N286        N  0.06068611  0.25921559  0.81107091    -0.75400
C287        C  0.03240916  0.26697096  0.81232496     0.85400
N288        N  0.02814969  0.29610395  0.81729025    -0.77100
C289        C  0.19765131  0.06072661  0.54766124     0.82800
N290        N  0.17127583  0.04903931  0.55535424    -0.75500
C291        C  0.16259233  0.01900415  0.55205626     0.85300
N292        N  0.19605992  0.49648607  0.58632151    -0.75400
C293        C  0.20639442  0.01267604  0.53365423     0.85400
N294        N  0.21526454  0.04251354  0.53704175    -0.77100
C295        C  0.21102917  0.05739683  0.82812256     0.82800
N296        N  0.23389773  0.03761875  0.83763467    -0.75500
C297        C  0.22730851  0.00764444  0.84518142     0.85300
N298        N  0.19501373  0.49891361  0.83851779    -0.75400
C299        C  0.17465680  0.01695280  0.83330878     0.85400
N300        N  0.18130316  0.04717583  0.82597273    -0.77100
O301        O  0.22110600  0.16026718  0.58670198    -0.78300
O302        O  0.25002186  0.29823492  0.57553738    -0.63000
O303        O  0.21968671  0.21771702  0.55390894    -1.09600
C304        C  0.32671311  0.20701551  0.55470314     1.08600
O305        O  0.27129922  0.30086983  0.53315865    -0.76200
O306        O  0.28119580  0.25765895  0.99789133    -0.63700
Ni307      Ni  0.19409597  0.19355428  0.57793046     1.34900
C308        C  0.26301690  0.23532384  0.98701521     0.87400
O309        O  0.19180757  0.27014017  0.56499611    -0.76700
O310        O  0.16482020  0.22521967  0.57002523    -0.87000
C311        C  0.26481060  0.31328154  0.55640769     0.86900
O312        O  0.21274566  0.20539029  0.62212480    -0.65200
O313        O  0.32817596  0.23625368  0.55007668    -0.84500
C314        C  0.23126143  0.22740315  0.63334212     0.87800
C315        C  0.16663502  0.25447194  0.56648477     1.09300
H316        H  0.28583241  0.24188461  0.58956457     0.41100
O317        O  0.27353751  0.24384280  0.56669000    -1.07100
O318        O  0.25138028  0.21295935  0.50631961    -0.63800
Ni319      Ni  0.25997495  0.20374703  0.55469041     1.26300
O320        O  0.24181702  0.24785510  0.61448558    -0.64000
O321        O  0.30163441  0.19133928  0.55650804    -0.76300
C322        C  0.22824044  0.14831547  0.56356005     0.87100
O323        O  0.24360151  0.16350737  0.54523923    -0.63500
Ni324      Ni  0.29861585  0.26780575  0.54194876     1.27400
Ni325      Ni  0.23334530  0.25778364  0.56621621     1.26100
H326        H  0.20760701  0.21986972  0.53095709     0.41700
O327        O  0.22896509  0.16052864  0.84248730    -0.78300
O328        O  0.24749066  0.29830007  0.82368918    -0.63000
O329        O  0.22104486  0.21620979  0.80587309    -1.09600
C330        C  0.32534806  0.21194428  0.80021260     1.08600
O331        O  0.26613513  0.30244422  0.77948607    -0.76200
O332        O  0.27432933  0.25708386  0.74464958    -0.63700
Ni333      Ni  0.19927958  0.19116020  0.83317564     1.34900
C334        C  0.25739987  0.23350187  0.73542238     0.87400
O335        O  0.19211743  0.26678720  0.81633606    -0.76700
O336        O  0.16824105  0.22054556  0.82478069    -0.87000
C337        C  0.26016345  0.31424465  0.80332402     0.86900
O338        O  0.21850470  0.20554680  0.87595046    -0.65200
O339        O  0.32524118  0.24098413  0.79438602    -0.84500
C340        C  0.23615825  0.22865393  0.88516764     0.87800
C341        C  0.16843023  0.24962876  0.81917623     1.09300
H342        H  0.28653696  0.24466209  0.83711056     0.41100
O343        O  0.27313646  0.24553935  0.81468058    -1.07100
O344        O  0.24988775  0.21256448  0.75596276    -0.63800
Ni345      Ni  0.26099706  0.20453441  0.80457815     1.26300
O346        O  0.24446362  0.24898054  0.86462158    -0.64000
O347        O  0.30205526  0.19470327  0.80423368    -0.76300
C348        C  0.23463989  0.14767086  0.81918554     0.87100
O349        O  0.24659440  0.16295319  0.79772241    -0.63500
Ni350      Ni  0.29483555  0.27083907  0.78743047     1.27400
Ni351      Ni  0.23317095  0.25706123  0.81608802     1.26100
H352        H  0.20767961  0.21709879  0.78342431     0.41700
C353        C  0.25382312  0.23321246  0.95104983    -0.10600
C354        C  0.24664212  0.23181734  0.92089778    -0.12200
C355        C  0.24702831  0.23045525  0.69961678    -0.10600
C356        C  0.24020399  0.22922611  0.66941539    -0.12200
C357        C  0.21880773  0.08903544  0.82082678    -0.10600
C358        C  0.22696073  0.11563828  0.81781867    -0.12200
C359        C  0.20836928  0.09161691  0.55304607    -0.10600
C360        C  0.21832080  0.11730489  0.55800668    -0.12200
C361        C  0.11475098  0.27213385  0.81468192    -0.10600
C362        C  0.13985935  0.26345700  0.81607043    -0.12200
C363        C  0.13818786  0.26989767  0.56467962    -0.10200
C364        C  0.11289159  0.27886623  0.56445432    -0.12200
C365        C  0.11631460  0.99898106  0.82799166    -0.10600
C366        C  0.14323668  0.00592154  0.83037228    -0.12200
C367        C  0.04682835  0.34841362  0.82431174    -0.10600
C368        C  0.03831622  0.37372796  0.82367939    -0.12200
C369        C  0.11611611  0.49402260  0.57634504    -0.10600
C370        C  0.13505195  0.00604204  0.56006227    -0.12200
C371        C  0.03491959  0.38263605  0.57025078    -0.10600
C372        C  0.03886314  0.35537787  0.56825972    -0.12200
C373        C  0.00691692  0.50972197  0.91487991    -0.10600
C374        C  0.00489468  0.50556335  0.94315323    -0.12200
C375        C  0.49348173  0.46239999  0.68483624    -0.10600
C376        C  0.49153286  0.45869236  0.71323723    -0.12200
C377        C  0.26663074  0.46954823  0.84431210    -0.10600
C378        C  0.24770539  0.48679419  0.84527588    -0.12200
C379        C  0.27943766  0.37127308  0.81261447    -0.10600
C380        C  0.26921075  0.34562374  0.80784062    -0.12200
C381        C  0.38438196  0.45828858  0.80932223    -0.10600
C382        C  0.35954582  0.45135378  0.81439207    -0.12200
C383        C  0.24938831  0.48667666  0.59367056    -0.10600
C384        C  0.26849064  0.46933679  0.59330398    -0.12200
C385        C  0.28485202  0.37060725  0.56446079    -0.10600
C386        C  0.27475591  0.34465134  0.56083133    -0.12200
C387        C  0.36069062  0.45517573  0.56095307    -0.10600
C388        C  0.38451313  0.46658147  0.55614960    -0.12200
C389        C  0.00712281  0.24428147  0.80882412    -0.10600
C390        C  0.48589588  0.22335320  0.80518639    -0.12200
C391        C  0.45172602  0.11670608  0.79920862    -0.10600
C392        C  0.46058072  0.09132787  0.80090493    -0.12200
C393        C  0.37916630  0.19105571  0.80202223    -0.10600
C394        C  0.35386318  0.19847348  0.80192455    -0.12200
C395        C  0.48723040  0.22088119  0.56125167    -0.10600
C396        C  0.00638217  0.24381661  0.56512075    -0.12200
C397        C  0.46362130  0.08161466  0.55711344    -0.10600
C398        C  0.45921131  0.10862693  0.55968617    -0.12200
C399        C  0.38117430  0.18267094  0.55932463    -0.10600
C400        C  0.35548985  0.19158494  0.55772480    -0.12200
C401        C  0.45089989  0.63923219  0.56175926     0.82800
N402        N  0.47292476  0.66503252  0.06127993    -0.75500
C403        C  0.46561233  0.69483059  0.06126904     0.85300
N404        N  0.43600402  0.70053937  0.06051768    -0.75400
C405        C  0.41368111  0.67519816  0.56141842     0.85400
N406        N  0.42137392  0.64569707  0.56113823    -0.77100
C407        C  0.44601428  0.65031134  0.30197393     0.82800
N408        N  0.46901387  0.67260239  0.30484755    -0.75500
C409        C  0.46288831  0.70207010  0.30616444     0.85300
N410        N  0.43371962  0.70917490  0.30477946    -0.75400
C411        C  0.41071951  0.68683975  0.30194289     0.85400
N412        N  0.41687342  0.65738259  0.30060739    -0.77100
C413        C  0.28681910  0.90700268  0.04852622     0.82800
N414        N  0.26342383  0.92627526  0.03870608    -0.75500
C415        C  0.26958466  0.95667023  0.03300490     0.85300
N416        N  0.29916806  0.96800133  0.03748891    -0.75400
C417        C  0.32271223  0.94884093  0.04723371     0.85400
N418        N  0.31659071  0.91819713  0.05271004    -0.77100
C419        C  0.29098005  0.90298377  0.32087924     0.82800
N420        N  0.31733849  0.91347056  0.31249609    -0.75500
C421        C  0.32833749  0.94271366  0.31742974     0.85300
N422        N  0.31296817  0.96134108  0.33052990    -0.75400
C423        C  0.28683194  0.95051710  0.33912136     0.85400
N424        N  0.27568381  0.92152532  0.33396121    -0.77100
O425        O  0.01376583  0.94953608  0.14081032    -0.78300
O426        O  0.00954830  0.97774790  0.49096218    -0.63000
O427        O  0.01917569  0.98790616  0.08459796    -1.09600
C428        C  0.40992972  0.98276611  0.04874669     1.08600
O429        O  0.47833998  0.01453611  0.47786248    -0.76200
O430        O  0.45509689  0.54163646  0.02370055    -0.63700
Ni431      Ni  0.04591157  0.96314016  0.11886386     1.34900
C432        C  0.46529225  0.54920222  0.05342703     0.87400
O433        O  0.05891873  0.98592705  0.04437005    -0.76700
O434        O  0.07985348  0.97699585  0.09992783    -0.87000
C435        C  0.99660181  0.99930865  0.47064437     0.86900
O436        O  0.04144185  0.92460496  0.09901089    -0.65200
O437        O  0.41316430  0.99266854  0.01984383    -0.84500
C438        C  0.02988942  0.91657223  0.06961284     0.87800
C439        C  0.08171677  0.98548627  0.07021103     1.09300
H440        H  0.46544142  0.95839686  0.03243492     0.41100
O441        O  0.47341790  0.97912983  0.03628108    -1.07100
O442        O  0.47641648  0.52953420  0.07798735    -0.63800
Ni443      Ni  0.47606214  0.98480235  0.08140219     1.26300
O444        O  0.01743971  0.93594051  0.04529201    -0.64000
O445        O  0.43214023  0.98037934  0.07520898    -0.76300
C446        C  0.49487608  0.96593434  0.14844273     0.87100
O447        O  0.48136111  0.98689961  0.12772939    -0.63500
Ni448      Ni  0.44820253  0.00542393  0.00224347     1.27400
Ni449      Ni  0.01549235  0.98124990  0.03947679     1.26100
H450        H  0.03049782  0.50863737  0.09091513     0.41700
O451        O  0.42062743  0.94205099  0.28819349    -0.78300
O452        O  0.06494671  0.97842004  0.30967692    -0.63000
O453        O  0.48293968  0.95804981  0.31775812    -1.09600
C454        C  0.47773856  0.56578776  0.31131316     1.08600
O455        O  0.07777445  0.51825195  0.34232490    -0.76200
O456        O  0.03495667  0.52129235  0.37596123    -0.63700
Ni457      Ni  0.45986501  0.92595483  0.29207326     1.34900
C458        C  0.00446605  0.01144087  0.37539541     0.87400
O459        O  0.03641458  0.92653661  0.32696150    -0.76700
O460        O  0.49532438  0.90349226  0.29409400    -0.87000
C461        C  0.08259454  0.00023947  0.32245935     0.86900
O462        O  0.46253604  0.94737247  0.25086654    -0.65200
O463        O  0.00626207  0.56512251  0.32759718    -0.84500
C464        C  0.48760575  0.95666968  0.24370503     0.87800
C465        C  0.02223363  0.90318863  0.31338948     1.09300
H466        H  0.01263107  0.51575998  0.28437430     0.41100
O467        O  0.01484056  0.50874905  0.30745927    -1.07100
O468        O  0.47777991  0.00549226  0.35179212    -0.63800
Ni469      Ni  0.46891701  0.99891964  0.30494774     1.26300
O470        O  0.01486321  0.96111241  0.26713563    -0.64000
O471        O  0.46177729  0.54081640  0.30566893    -0.76300
C472        C  0.41128813  0.96426635  0.29914419     0.87100
O473        O  0.42814780  0.98773902  0.30870819    -0.63500
Ni474      Ni  0.04019133  0.53916228  0.33401062     1.27400
Ni475      Ni  0.02435879  0.96769754  0.31406269     1.26100
H476        H  0.48420256  0.95224958  0.34096729     0.41700
C477        C  0.04448562  0.82422923  0.06232982     0.82800
N478        N  0.02285852  0.80033654  0.06302386    -0.75500
C479        C  0.03019512  0.77053883  0.06303009     0.85300
N480        N  0.05946371  0.76492338  0.06243477    -0.75400
C481        C  0.08139328  0.78816004  0.06182434     0.85400
N482        N  0.07371756  0.81773321  0.06180418    -0.77100
C483        C  0.05119994  0.81807069  0.31647468     0.82800
N484        N  0.07979759  0.81032758  0.31637619    -0.75500
C485        C  0.08469636  0.78096000  0.31279001     0.85300
N486        N  0.06096607  0.75935742  0.30926034    -0.75400
C487        C  0.03232548  0.76708974  0.30927467     0.85400
N488        N  0.02749256  0.79645876  0.31288522    -0.77100
C489        C  0.20812448  0.55949894  0.07226950     0.82800
N490        N  0.17835636  0.54842832  0.06797611    -0.75500
C491        C  0.17220922  0.51786679  0.07366683     0.85300
N492        N  0.17877072  0.00291371  0.03921261    -0.75400
C493        C  0.22524101  0.50991549  0.08829058     0.85400
N494        N  0.23148059  0.54023962  0.08237938    -0.77100
C495        C  0.21378258  0.55952229  0.32483150     0.82800
N496        N  0.23608309  0.53912301  0.33416146    -0.75500
C497        C  0.22854851  0.50915246  0.34044435     0.85300
N498        N  0.19470988  0.99899604  0.33458853    -0.75400
C499        C  0.17620771  0.51976828  0.32778793     0.85400
N500        N  0.18375247  0.54997787  0.32173333    -0.77100
O501        O  0.22320096  0.66320697  0.08870574    -0.78300
O502        O  0.25043738  0.80089740  0.07391761    -0.63000
O503        O  0.22073486  0.71974487  0.05434110    -1.09600
C504        C  0.32784227  0.70910110  0.05518554     1.08600
O505        O  0.27250736  0.80269086  0.03214291    -0.76200
O506        O  0.27996338  0.75685510  0.49908926    -0.63700
Ni507      Ni  0.19548670  0.69590831  0.07880437     1.34900
C508        C  0.26248009  0.73408298  0.48819902     0.87400
O509        O  0.19239382  0.77221820  0.06415390    -0.76700
O510        O  0.16566630  0.72721278  0.06978983    -0.87000
C511        C  0.26482565  0.81572582  0.05424229     0.86900
O512        O  0.21386256  0.70872974  0.12259230    -0.65200
O513        O  0.32971288  0.73835532  0.05174282    -0.84500
C514        C  0.23252447  0.73076161  0.13339804     0.87800
C515        C  0.16722092  0.75646664  0.06558948     1.09300
H516        H  0.28651605  0.74412629  0.08955133     0.41100
O517        O  0.27442427  0.74604015  0.06663037    -1.07100
O518        O  0.25193276  0.71529187  0.00665250    -0.63800
Ni519      Ni  0.26091500  0.70581183  0.05492866     1.26300
O520        O  0.24292978  0.75095704  0.11416954    -0.64000
O521        O  0.30249969  0.69348468  0.05610140    -0.76300
C522        C  0.23043271  0.65030225  0.06624817     0.87100
O523        O  0.24454140  0.66516422  0.04638270    -0.63500
Ni524      Ni  0.30002276  0.76976721  0.04244735     1.27400
Ni525      Ni  0.23415668  0.76003976  0.06575430     1.26100
H526        H  0.20847672  0.72154070  0.03146383     0.41700
O527        O  0.23147314  0.66218940  0.34208321    -0.78300
O528        O  0.24790821  0.79944141  0.32600619    -0.63000
O529        O  0.22256989  0.71789725  0.30613837    -1.09600
C530        C  0.32659418  0.71589830  0.29932334     1.08600
O531        O  0.26538215  0.80470509  0.28097113    -0.76200
O532        O  0.27477440  0.76079579  0.24497384    -0.63700
Ni533      Ni  0.20085116  0.69195247  0.33265854     1.34900
C534        C  0.25854578  0.73691058  0.23550970     0.87400
O535        O  0.19299169  0.76735443  0.31799605    -0.76700
O536        O  0.16906592  0.72068912  0.32391542    -0.87000
C537        C  0.25961595  0.81595567  0.30525378     0.86900
O538        O  0.21877148  0.70594770  0.37593266    -0.65200
O539        O  0.32611123  0.74499124  0.29394792    -0.84500
C540        C  0.23654663  0.72875162  0.38595401     0.87800
C541        C  0.16915467  0.74986384  0.31943756     1.09300
H542        H  0.28786563  0.74687298  0.33772746     0.41100
O543        O  0.27426866  0.74788291  0.31538342    -1.07100
O544        O  0.25144390  0.71557088  0.25589331    -0.63800
Ni545      Ni  0.26268087  0.70709536  0.30449599     1.26300
O546        O  0.24553786  0.74923482  0.36598841    -0.64000
O547        O  0.30371725  0.69822910  0.30363172    -0.76300
C548        C  0.23757533  0.64977931  0.31870561     0.87100
O549        O  0.24903713  0.66555516  0.29717454    -0.63500
Ni550      Ni  0.29505684  0.77411284  0.28799493     1.27400
Ni551      Ni  0.23417632  0.75841243  0.31747450     1.26100
H552        H  0.20928171  0.71918239  0.28366047     0.41700
C553        C  0.25318350  0.73224428  0.45214137    -0.10600
C554        C  0.24636460  0.73130621  0.42189607    -0.12200
C555        C  0.24853118  0.73400557  0.19964708    -0.10600
C556        C  0.24177332  0.73284284  0.16943192    -0.12200
C557        C  0.22241499  0.59112589  0.31906451    -0.10600
C558        C  0.23055471  0.61775252  0.31698145    -0.12200
C559        C  0.21537393  0.59148484  0.06664151    -0.10600
C560        C  0.22299099  0.61827358  0.06458962    -0.12200
C561        C  0.11516061  0.77244224  0.31383342    -0.10600
C562        C  0.14035317  0.76351336  0.31591376    -0.12200
C563        C  0.13846973  0.77183242  0.06287544    -0.10200
C564        C  0.11297794  0.78086371  0.06191615    -0.12200
C565        C  0.11800081  0.50296260  0.32436554    -0.10600
C566        C  0.14466418  0.50954659  0.32511687    -0.12200
C567        C  0.04549863  0.84932370  0.31883351    -0.10600
C568        C  0.03735469  0.87491273  0.31813915    -0.12200
C569        C  0.11102763  0.99668060  0.06535459    -0.10600
C570        C  0.14115413  0.50572951  0.07034318    -0.12200
C571        C  0.03214218  0.88384802  0.06424041    -0.10600
C572        C  0.03679805  0.85664631  0.06272421    -0.12200
C573        C  0.00337642  0.00692477  0.40951515    -0.10600
C574        C  0.00108925  0.00345174  0.43776797    -0.12200
C575        C  0.49022168  0.96229576  0.18118663    -0.10600
C576        C  0.48799384  0.96010684  0.20941568    -0.12200
C577        C  0.26772691  0.97099071  0.34719979    -0.10600
C578        C  0.24833445  0.98821299  0.34669303    -0.12200
C579        C  0.27830194  0.87288426  0.31458371    -0.10600
C580        C  0.26803391  0.84729831  0.30990414    -0.12200
C581        C  0.38042215  0.96121863  0.30254080    -0.10600
C582        C  0.35593953  0.95401864  0.30840046    -0.12200
C583        C  0.22564839  0.99430769  0.02527369    -0.10600
C584        C  0.24514082  0.97705312  0.02585508    -0.12200
C585        C  0.27957675  0.87482808  0.05374039    -0.10600
C586        C  0.27206595  0.84792893  0.05567308    -0.12200
C587        C  0.35386375  0.96120918  0.05063338    -0.10600
C588        C  0.37947118  0.97209125  0.05109823    -0.12200
C589        C  0.00721030  0.74416170  0.30586448    -0.10600
C590        C  0.48730903  0.72564313  0.30907856    -0.12200
C591        C  0.45309911  0.61911804  0.30246937    -0.10600
C592        C  0.46226841  0.59378018  0.30529720    -0.12200
C593        C  0.38005453  0.69439169  0.30101619    -0.10600
C594        C  0.35498753  0.70263140  0.30044790    -0.12200
C595        C  0.48890853  0.72089338  0.06187660    -0.10600
C596        C  0.00725068  0.74438253  0.06362913    -0.12200
C597        C  0.46305927  0.58178121  0.05884617    -0.10600
C598        C  0.45855258  0.60896028  0.06028699    -0.12200
C599        C  0.38197984  0.68465064  0.05883258    -0.10600
C600        C  0.35643911  0.69361165  0.05769362    -0.12200
C601        C  0.45093316  0.64129273  0.06058246     0.82800
N602        N  0.47282753  0.66300587  0.56252043    -0.75500
C603        C  0.46550604  0.69273402  0.56276404     0.85300
N604        N  0.43591439  0.69838411  0.56219151    -0.75400
C605        C  0.41375217  0.67739207  0.05977603     0.85400
N606        N  0.42140611  0.64785719  0.05975860    -0.77100
C607        C  0.44249795  0.64612797  0.80238939     0.82800
N608        N  0.46600097  0.66784083  0.80500657    -0.75500
C609        C  0.46087606  0.69741177  0.80715923     0.85300
N610        N  0.43218961  0.70525003  0.80677686    -0.75400
C611        C  0.40872984  0.68344202  0.80430883     0.85400
N612        N  0.41387187  0.65387224  0.80215276    -0.77100
C613        C  0.28841452  0.90557497  0.55297172     0.82800
N614        N  0.26499464  0.92479974  0.54265199    -0.75500
C615        C  0.27107803  0.95507583  0.53597800     0.85300
N616        N  0.30058480  0.96639435  0.54002083    -0.75400
C617        C  0.32415786  0.94734148  0.55029669     0.85400
N618        N  0.31816272  0.91676837  0.55668614    -0.77100
C619        C  0.29054324  0.90255878  0.81703256     0.82800
N620        N  0.31702419  0.91295359  0.80876628    -0.75500
C621        C  0.32852016  0.94198549  0.81440499     0.85300
N622        N  0.31361619  0.96044028  0.82828722    -0.75400
C623        C  0.28738502  0.94974226  0.83676589     0.85400
N624        N  0.27575235  0.92098395  0.83089330    -0.77100
O625        O  0.01235907  0.94828982  0.63797368    -0.78300
O626        O  0.00935106  0.97831123  0.99303662    -0.63000
O627        O  0.01899963  0.98665013  0.58256650    -1.09600
C628        C  0.41052207  0.98195493  0.55009519     1.08600
O629        O  0.48138824  0.01824015  0.98161066    -0.76200
O630        O  0.45383665  0.53899262  0.52453280    -0.63700
Ni631      Ni  0.04505190  0.96142189  0.61684267     1.34900
C632        C  0.46562911  0.54737442  0.55373970     0.87400
O633        O  0.05923459  0.98426986  0.54289781    -0.76700
O634        O  0.07941987  0.97480410  0.59855424    -0.87000
C635        C  0.99644059  0.99963590  0.97235780     0.86900
O636        O  0.04012980  0.92303396  0.59672189    -0.65200
O637        O  0.41265767  0.99186985  0.52079022    -0.84500
C638        C  0.02865414  0.91526704  0.56721495     0.87800
C639        C  0.08176611  0.98345708  0.56906051     1.09300
H640        H  0.46362939  0.95629109  0.53133054     0.41100
O641        O  0.47210936  0.97698308  0.53452206    -1.07100
O642        O  0.47848408  0.52841711  0.57819441    -0.63800
Ni643      Ni  0.47696324  0.98357408  0.57991872     1.26300
O644        O  0.01676484  0.93490155  0.54291957    -0.64000
O645        O  0.43341531  0.97935796  0.57587361    -0.76300
C646        C  0.49844839  0.96587819  0.64723804     0.87100
O647        O  0.48439913  0.98660211  0.62654239    -0.63500
Ni648      Ni  0.44648604  0.00329015  0.50092803     1.27400
Ni649      Ni  0.01561047  0.98026637  0.53747524     1.26100
H650        H  0.02944850  0.50772312  0.59319527     0.41700
O651        O  0.42140912  0.94945595  0.77986789    -0.78300
O652        O  0.06635225  0.97726059  0.80719705    -0.63000
O653        O  0.48365643  0.95504439  0.81730082    -1.09600
C654        C  0.47352545  0.56206345  0.80846424     1.08600
O655        O  0.07287522  0.51644594  0.84449229    -0.76200
O656        O  0.02878898  0.52854024  0.87200325    -0.63700
Ni657      Ni  0.45771379  0.92613834  0.78956320     1.34900
C658        C  0.00683702  0.01133572  0.87807005     0.87400
O659        O  0.03735452  0.92380142  0.82014561    -0.76700
O660        O  0.49073943  0.89898134  0.79730897    -0.87000
C661        C  0.08393673  0.99570393  0.82605896     0.86900
O662        O  0.46552221  0.94347303  0.74860552    -0.65200
O663        O  0.00319700  0.56662545  0.81659241    -0.84500
C664        C  0.49054423  0.95460155  0.74264847     0.87800
C665        C  0.02120034  0.89964189  0.81109065     1.09300
H666        H  0.00849902  0.51360717  0.78264573     0.41100
O667        O  0.01117713  0.50768401  0.80604260    -1.07100
O668        O  0.48366240  0.99828629  0.85804807    -0.63800
Ni669      Ni  0.47121063  0.99628075  0.81062485     1.26300
O670        O  0.01487541  0.96193582  0.76407818    -0.64000
O671        O  0.45840442  0.53670418  0.80292700    -0.76300
C672        C  0.41299110  0.96509980  0.79941415     0.87100
O673        O  0.43132628  0.98413393  0.81670744    -0.63500
Ni674      Ni  0.03658349  0.53969475  0.82955723     1.27400
Ni675      Ni  0.02568006  0.96529249  0.81152962     1.26100
H676        H  0.48529226  0.94716103  0.84005084     0.41700
C677        C  0.04285542  0.82308269  0.55941237     0.82800
N678        N  0.02116654  0.79912261  0.55914016    -0.75500
C679        C  0.02871014  0.76943607  0.55899228     0.85300
N680        N  0.05824547  0.76399047  0.55919772    -0.75400
C681        C  0.08024780  0.78731897  0.55953385     0.85400
N682        N  0.07235501  0.81678470  0.55968811    -0.77100
C683        C  0.05046044  0.81406563  0.81982317     0.82800
N684        N  0.07902055  0.80616503  0.82008247    -0.75500
C685        C  0.08441864  0.77639638  0.81946608     0.85300
N686        N  0.06114109  0.75444982  0.81837476    -0.75400
C687        C  0.03245484  0.76245529  0.81803107     0.85400
N688        N  0.02718781  0.79227258  0.81865705    -0.77100
C689        C  0.20803737  0.55685554  0.57073772     0.82800
N690        N  0.17863598  0.54615639  0.56980165    -0.75500
C691        C  0.17269502  0.51586054  0.57750080     0.85300
N692        N  0.18028011  0.00082316  0.54149328    -0.75400
C693        C  0.22534016  0.50735587  0.58755473     0.85400
N694        N  0.23130553  0.53742563  0.57955081    -0.77100
C695        C  0.21033462  0.55894801  0.82558809     0.82800
N696        N  0.23233493  0.53826671  0.83346226    -0.75500
C697        C  0.22474164  0.50839732  0.84012441     0.85300
N698        N  0.19766877  0.99713205  0.84269440    -0.75400
C699        C  0.17289545  0.51964843  0.83074345     0.85400
N700        N  0.18050003  0.54979263  0.82430279    -0.77100
O701        O  0.21970001  0.66045634  0.58629254    -0.78300
O702        O  0.25026504  0.79897158  0.57569905    -0.63000
O703        O  0.22008310  0.71822319  0.55337002    -1.09600
C704        C  0.32734278  0.70682233  0.55593347     1.08600
O705        O  0.27378174  0.80225048  0.53493975    -0.76200
O706        O  0.28196004  0.75689005  0.99861785    -0.63700
Ni707      Ni  0.19336042  0.69439944  0.57636133     1.34900
C708        C  0.26281964  0.73525512  0.98763136     0.87400
O709        O  0.19184532  0.77101165  0.56367655    -0.76700
O710        O  0.16423887  0.72634287  0.56738081    -0.87000
C711        C  0.26565058  0.81439133  0.55735284     0.86900
O712        O  0.21131838  0.70621293  0.62079217    -0.65200
O713        O  0.32860057  0.73597630  0.55037654    -0.84500
C714        C  0.23029002  0.72780208  0.63243390     0.87800
C715        C  0.16630013  0.75558132  0.56414943     1.09300
H716        H  0.28595112  0.74249406  0.59029776     0.41100
O717        O  0.27401635  0.74430566  0.56731189    -1.07100
O718        O  0.25327790  0.71291692  0.50734091    -0.63800
Ni719      Ni  0.26059482  0.70392663  0.55559764     1.26300
O720        O  0.24137212  0.74815801  0.61393786    -0.64000
O721        O  0.30247469  0.69127032  0.55872370    -0.76300
C722        C  0.22880481  0.64804053  0.56471352     0.87100
O723        O  0.24435771  0.66326647  0.54650288    -0.63500
Ni724      Ni  0.29979205  0.76813284  0.54319621     1.27400
Ni725      Ni  0.23363987  0.75840745  0.56585170     1.26100
H726        H  0.20860772  0.72037352  0.53021210     0.41700
O727        O  0.23158697  0.66150970  0.84313309    -0.78300
O728        O  0.24681358  0.79874863  0.82424949    -0.63000
O729        O  0.22108978  0.71659559  0.80607935    -1.09600
C730        C  0.32479609  0.71384473  0.79933184     1.08600
O731        O  0.26408860  0.80314521  0.77905400    -0.76200
O732        O  0.27304853  0.75825635  0.74359592    -0.63700
Ni733      Ni  0.20057230  0.69073062  0.83385097     1.34900
C734        C  0.25654169  0.73436608  0.73456528     0.87400
O735        O  0.19187299  0.76600754  0.81846856    -0.76700
O736        O  0.16873534  0.71900810  0.82554534    -0.87000
C737        C  0.25870128  0.81488122  0.80328371     0.86900
O738        O  0.21896235  0.70558627  0.87652323    -0.65200
O739        O  0.32440425  0.74287197  0.79315749    -0.84500
C740        C  0.23657017  0.72869484  0.88576558     0.87800
C741        C  0.16854329  0.74813397  0.82116129     1.09300
H742        H  0.28645406  0.74574232  0.83634698     0.41100
O743        O  0.27267232  0.74658386  0.81411643    -1.07100
O744        O  0.24934845  0.71346952  0.75533399    -0.63800
Ni745      Ni  0.26091962  0.70561647  0.80399961     1.26300
O746        O  0.24512551  0.74887813  0.86523520    -0.64000
O747        O  0.30174091  0.69637848  0.80332359    -0.76300
C748        C  0.23643780  0.64862836  0.81944455     0.87100
O749        O  0.24716637  0.66403654  0.79719368    -0.63500
Ni750      Ni  0.29348787  0.77224006  0.78639414     1.27400
Ni751      Ni  0.23284683  0.75734946  0.81670959     1.26100
H752        H  0.20742343  0.71750223  0.78377896     0.41700
C753        C  0.25353179  0.73331342  0.95164189    -0.10600
C754        C  0.24664953  0.73198505  0.92148616    -0.12200
C755        C  0.24622394  0.73088847  0.69877611    -0.10600
C756        C  0.23923266  0.72936510  0.66858523    -0.12200
C757        C  0.21926860  0.59043543  0.81980711    -0.10600
C758        C  0.22823717  0.61681149  0.81779714    -0.12200
C759        C  0.21512153  0.58886759  0.56433336    -0.10600
C760        C  0.22218435  0.61584828  0.56248767    -0.12200
C761        C  0.11464673  0.76841193  0.81932311    -0.10600
C762        C  0.13991155  0.76100259  0.81957371    -0.12200
C763        C  0.13766864  0.77123384  0.56144161    -0.10200
C764        C  0.11208800  0.78023420  0.56026321    -0.12200
C765        C  0.11491716  0.50278328  0.82841254    -0.10600
C766        C  0.14154069  0.50964236  0.82930801    -0.12200
C767        C  0.04426327  0.84557030  0.81890782    -0.10600
C768        C  0.03589850  0.87122311  0.81629941    -0.12200
C769        C  0.11138166  0.99453982  0.56507774    -0.10600
C770        C  0.14180310  0.50409696  0.57627987    -0.12200
C771        C  0.03044230  0.88254175  0.56167763    -0.10600
C772        C  0.03497387  0.85535988  0.56001204    -0.12200
C773        C  0.00599676  0.00792292  0.91233133    -0.10600
C774        C  0.00265851  0.00441891  0.94021113    -0.12200
C775        C  0.49443755  0.96220587  0.68037009    -0.10600
C776        C  0.49204665  0.95910867  0.70861741    -0.12200
C777        C  0.26953695  0.96981757  0.84754684    -0.10600
C778        C  0.25096868  0.98674739  0.85024515    -0.12200
C779        C  0.27792593  0.87218581  0.81127461    -0.10600
C780        C  0.26759709  0.84639139  0.80743988    -0.12200
C781        C  0.38190875  0.96038727  0.80223053    -0.10600
C782        C  0.35689750  0.95288817  0.80670304    -0.12200
C783        C  0.22713546  0.99273113  0.52741396    -0.10600
C784        C  0.24667390  0.97546657  0.52833063    -0.12200
C785        C  0.28111246  0.87338635  0.55872240    -0.10600
C786        C  0.27324896  0.84649970  0.56026490    -0.12200
C787        C  0.35517340  0.95985432  0.55348314    -0.10600
C788        C  0.38051132  0.97115692  0.55355791    -0.12200
C789        C  0.00721963  0.73978781  0.81557995    -0.10600
C790        C  0.48584548  0.72028394  0.80985750    -0.12200
C791        C  0.44844387  0.61488866  0.80120087    -0.10600
C792        C  0.45730976  0.58957716  0.80273479    -0.12200
C793        C  0.37840959  0.69175403  0.80344893    -0.10600
C794        C  0.35331782  0.70036678  0.80193766    -0.12200
C795        C  0.48872552  0.71876960  0.56297387    -0.10600
C796        C  0.00576796  0.74322828  0.55900721    -0.12200
C797        C  0.46321915  0.57998333  0.55890650    -0.10600
C798        C  0.45856632  0.60703207  0.56080127    -0.12200
C799        C  0.38179883  0.68243781  0.56030787    -0.10600
C800        C  0.35614421  0.69139630  0.55886367    -0.12200
C801        C  0.95044433  0.14157416  0.56139698     0.82800
N802        N  0.97213673  0.16655091  0.06000051    -0.75500
C803        C  0.96501428  0.19643933  0.05989131     0.85300
N804        N  0.93555281  0.20236779  0.05942085    -0.75400
C805        C  0.91279145  0.17697119  0.56106628     0.85400
N806        N  0.92078055  0.14769030  0.56041423    -0.77100
C807        C  0.94338885  0.14967574  0.29668775     0.82800
N808        N  0.96678913  0.17160677  0.30027193    -0.75500
C809        C  0.96124569  0.20105212  0.30268754     0.85300
N810        N  0.93222553  0.20843393  0.30182093    -0.75400
C811        C  0.90886167  0.18637808  0.29838509     0.85400
N812        N  0.91450628  0.15704089  0.29588361    -0.77100
C813        C  0.79541166  0.40381051  0.07014895     0.82800
N814        N  0.77875588  0.42109489  0.08318500    -0.75500
C815        C  0.78878713  0.45016016  0.08973516     0.85300
N816        N  0.81515788  0.46229536  0.08264832    -0.75400
C817        C  0.83188153  0.44514196  0.06952026     0.85400
N818        N  0.82205008  0.41579671  0.06316684    -0.77100
C819        C  0.79510914  0.40226028  0.32328642     0.82800
N820        N  0.82205746  0.41302829  0.31630112    -0.75500
C821        C  0.83265579  0.44235986  0.32163686     0.85300
N822        N  0.81622728  0.46082011  0.33366628    -0.75400
C823        C  0.78951519  0.44977418  0.34086458     0.85400
N824        N  0.77884136  0.42068820  0.33536862    -0.77100
O825        O  0.51389227  0.44757867  0.14270101    -0.78300
O826        O  0.51582915  0.47743831  0.49772140    -0.63000
O827        O  0.52202209  0.48701423  0.08848506    -1.09600
C828        C  0.91321013  0.48090601  0.05315451     1.08600
O829        O  0.98211901  0.51477901  0.48408742    -0.76200
O830        O  0.95233501  0.04307891  0.02201046    -0.63700
Ni831      Ni  0.54749300  0.46174626  0.12324510     1.34900
C832        C  0.96290863  0.05046642  0.05177067     0.87400
O833        O  0.56437020  0.48576638  0.05068641    -0.76700
O834        O  0.58265206  0.47592681  0.10656277    -0.87000
C835        C  0.50241119  0.49854202  0.47709464     0.86900
O836        O  0.54391789  0.42361743  0.10293748    -0.65200
O837        O  0.91530695  0.48909902  0.02346857    -0.84500
C838        C  0.53316271  0.41605359  0.07327307     0.87800
C839        C  0.58622746  0.48482799  0.07756936     1.09300
H840        H  0.96866165  0.45772932  0.03620432     0.41100
O841        O  0.97606279  0.47875879  0.03913258    -1.07100
O842        O  0.97381621  0.03052008  0.07612409    -0.63800
Ni843      Ni  0.97956115  0.48534625  0.08422711     1.26300
O844        O  0.52186356  0.43578103  0.04892182    -0.64000
O845        O  0.93592453  0.48073195  0.07915901    -0.76300
C846        C  0.99926302  0.46723539  0.15143680     0.87100
O847        O  0.98575628  0.48830633  0.13076336    -0.63500
Ni848      Ni  0.94928596  0.50329873  0.00478321     1.27400
Ni849      Ni  0.52029930  0.48097252  0.04366704     1.26100
H850        H  0.52717707  0.00788078  0.08919011     0.41700
O851        O  0.92499800  0.44891432  0.28719799    -0.78300
O852        O  0.56743929  0.48156357  0.30757841    -0.63000
O853        O  0.98802153  0.45748875  0.32278292    -1.09600
C854        C  0.97260559  0.06433402  0.30438704     1.08600
O855        O  0.57209489  0.02202615  0.33500149    -0.76200
O856        O  0.52806448  0.01920176  0.36854262    -0.63700
Ni857      Ni  0.96219113  0.42695926  0.29689758     1.34900
C858        C  0.51067323  0.51297098  0.38240692     0.87400
O859        O  0.53966014  0.42723365  0.32198634    -0.76700
O860        O  0.99573283  0.40047080  0.30479482    -0.87000
C861        C  0.58551762  0.50091508  0.32477685     0.86900
O862        O  0.96828582  0.44301333  0.25466397    -0.65200
O863        O  0.49810110  0.06410774  0.32284038    -0.84500
C864        C  0.99236224  0.45520648  0.24728696     0.87800
C865        C  0.52338628  0.40202744  0.31947086     1.09300
H866        H  0.50908738  0.01546610  0.27788654     0.41100
O867        O  0.50988590  0.00910948  0.30087574    -1.07100
O868        O  0.98596598  0.50279646  0.36121864    -0.63800
Ni869      Ni  0.97455242  0.49840140  0.31396285     1.26300
O870        O  0.51454202  0.46593745  0.26703302    -0.64000
O871        O  0.95787675  0.04022696  0.29321826    -0.76300
C872        C  0.91671479  0.46600987  0.30548644     0.87100
O873        O  0.93488436  0.48632441  0.32070658    -0.63500
Ni874      Ni  0.53323281  0.04015286  0.32792719     1.27400
Ni875      Ni  0.52769521  0.46897823  0.31439468     1.26100
H876        H  0.99038859  0.45066512  0.34593456     0.41700
C877        C  0.54549429  0.32383723  0.06423361     0.82800
N878        N  0.52331911  0.30034384  0.06398553    -0.75500
C879        C  0.52998732  0.27051755  0.06298855     0.85300
N880        N  0.55914634  0.26450769  0.06234820    -0.75400
C881        C  0.58154662  0.28743528  0.06267174     0.85400
N882        N  0.57454018  0.31699132  0.06364630    -0.77100
C883        C  0.55172093  0.31711736  0.32235648     0.82800
N884        N  0.58012085  0.31005611  0.32103270    -0.75500
C885        C  0.58501619  0.28122064  0.31575114     0.85300
N886        N  0.56148038  0.25940577  0.31165832    -0.75400
C887        C  0.53296036  0.26646345  0.31283223     0.85400
N888        N  0.52809712  0.29538152  0.31812581    -0.77100
C889        C  0.69929448  0.06187043  0.05102522     0.82800
N890        N  0.67298706  0.05063115  0.05930372    -0.75500
C891        C  0.66416353  0.02045757  0.05700019     0.85300
N892        N  0.69698618  0.49741050  0.09016647    -0.75400
C893        C  0.70749633  0.01321826  0.03815660     0.85400
N894        N  0.71656440  0.04310406  0.04066812    -0.77100
C895        C  0.70874499  0.05978823  0.31960933     0.82800
N896        N  0.73112108  0.03957309  0.33049287    -0.75500
C897        C  0.72366776  0.00987118  0.33830157     0.85300
N898        N  0.69787308  0.50028530  0.33818108    -0.75400
C899        C  0.67126891  0.02036726  0.32411290     0.85400
N900        N  0.67871541  0.05033419  0.31656583    -0.77100
O901        O  0.72250703  0.16247071  0.08610067    -0.78300
O902        O  0.74962356  0.30062753  0.07415866    -0.63000
O903        O  0.72015242  0.21979704  0.05280697    -1.09600
C904        C  0.82706288  0.21076820  0.05311644     1.08600
O905        O  0.77016048  0.30356277  0.03127524    -0.76200
O906        O  0.78149949  0.25639494  0.49872113    -0.63700
Ni907      Ni  0.69502534  0.19537027  0.07712305     1.34900
C908        C  0.76235752  0.23495562  0.48698447     0.87400
O909        O  0.69183557  0.27190439  0.06377530    -0.76700
O910        O  0.66538805  0.22669279  0.06907801    -0.87000
C911        C  0.76405180  0.31585587  0.05481147     0.86900
O912        O  0.71358458  0.20750587  0.12118865    -0.65200
O913        O  0.82806800  0.23998773  0.04815350    -0.84500
C914        C  0.73179003  0.22978984  0.13219348     0.87800
C915        C  0.66687300  0.25594648  0.06532187     1.09300
H916        H  0.78610550  0.24492523  0.08799964     0.41100
O917        O  0.77364721  0.24662838  0.06519046    -1.07100
O918        O  0.75176015  0.21516105  0.00520043    -0.63800
Ni919      Ni  0.76055277  0.20631086  0.05353874     1.26300
O920        O  0.74208777  0.25027236  0.11318362    -0.64000
O921        O  0.80231604  0.19465679  0.05522258    -0.76300
C922        C  0.72963642  0.15037347  0.06306410     0.87100
O923        O  0.74469342  0.16567158  0.04444935    -0.63500
Ni924      Ni  0.79804174  0.27100086  0.03997326     1.27400
Ni925      Ni  0.73339130  0.26003675  0.06490894     1.26100
H926        H  0.70797580  0.22177045  0.02987785     0.41700
O927        O  0.72805976  0.16146437  0.33916755    -0.78300
O928        O  0.74790581  0.29976937  0.32481825    -0.63000
O929        O  0.72090137  0.21827619  0.30461172    -1.09600
C930        C  0.82484633  0.21467585  0.29764304     1.08600
O931        O  0.76552763  0.30468393  0.28001685    -0.76200
O932        O  0.77380118  0.26031743  0.24364585    -0.63700
Ni933      Ni  0.69897173  0.19260993  0.33129842     1.34900
C934        C  0.75706563  0.23671306  0.23408633     0.87400
O935        O  0.69241850  0.26855546  0.31641918    -0.76700
O936        O  0.66833876  0.22226431  0.32398459    -0.87000
C937        C  0.76063437  0.31600532  0.30470396     0.86900
O938        O  0.71850201  0.20584016  0.37476096    -0.65200
O939        O  0.82480731  0.24377686  0.29265567    -0.84500
C940        C  0.73602164  0.22892435  0.38460116     0.87800
C941        C  0.66870713  0.25138213  0.31896891     1.09300
H942        H  0.78664046  0.24615626  0.33635128     0.41100
O943        O  0.77311541  0.24744274  0.31398443    -1.07100
O944        O  0.74948814  0.21560446  0.25434256    -0.63800
Ni945      Ni  0.76075615  0.20679810  0.30275937     1.26300
O946        O  0.74436684  0.24965183  0.36443760    -0.64000
O947        O  0.80166529  0.19725205  0.30166354    -0.76300
C948        C  0.73386811  0.14962675  0.31524345     0.87100
O949        O  0.74619307  0.16561872  0.29457189    -0.63500
Ni950      Ni  0.79439001  0.27340468  0.28677699     1.27400
Ni951      Ni  0.73328394  0.25881584  0.31596238     1.26100
H952        H  0.70751357  0.21969944  0.28217361     0.41700
C953        C  0.75344024  0.23326035  0.45079907    -0.10600
C954        C  0.74630116  0.23174596  0.42057406    -0.12200
C955        C  0.74710126  0.23365614  0.19828794    -0.10600
C956        C  0.74055750  0.23200893  0.16817550    -0.12200
C957        C  0.71742261  0.09130934  0.31341658    -0.10600
C958        C  0.72596183  0.11785963  0.31210774    -0.12200
C959        C  0.71003719  0.09310642  0.05472229    -0.10600
C960        C  0.72004425  0.11906665  0.05821188    -0.12200
C961        C  0.61524399  0.27359979  0.31529410    -0.10600
C962        C  0.64033200  0.26524032  0.31628500    -0.12200
C963        C  0.63828380  0.27108873  0.06319761    -0.10200
C964        C  0.61289788  0.27996202  0.06257492    -0.12200
C965        C  0.61313682  0.00409455  0.32098492    -0.10600
C966        C  0.63980726  0.01034742  0.32176385    -0.12200
C967        C  0.54609393  0.34804979  0.32577940    -0.10600
C968        C  0.53838885  0.37373895  0.32513212    -0.12200
C969        C  0.61672453  0.49560099  0.07554416    -0.10600
C970        C  0.63649984  0.00786841  0.06523549    -0.12200
C971        C  0.53480399  0.38343848  0.06757167    -0.10600
C972        C  0.53862518  0.35621290  0.06550842    -0.12200
C973        C  0.51107857  0.50830825  0.41692385    -0.10600
C974        C  0.50858416  0.50393430  0.44505008    -0.12200
C975        C  0.99462104  0.46302136  0.18436093    -0.10600
C976        C  0.99257545  0.45950940  0.21277183    -0.12200
C977        C  0.76990229  0.47001353  0.34860589    -0.10600
C978        C  0.75087015  0.48758422  0.34839925    -0.12200
C979        C  0.78263967  0.37205656  0.31631066    -0.10600
C980        C  0.77137643  0.34683169  0.31071940    -0.12200
C981        C  0.88590444  0.46148849  0.30932884    -0.10600
C982        C  0.86108627  0.45388670  0.31434129    -0.12200
C983        C  0.75044465  0.48664372  0.10065466    -0.10600
C984        C  0.76923741  0.46934727  0.09928865    -0.12200
C985        C  0.78439189  0.37299926  0.06376944    -0.10600
C986        C  0.77423080  0.34713939  0.05954424    -0.12200
C987        C  0.85978492  0.45838341  0.06232179    -0.10600
C988        C  0.88364017  0.46979439  0.05754654    -0.12200
C989        C  0.50784431  0.24347021  0.30803856    -0.10600
C990        C  0.98627666  0.22416433  0.30673261    -0.12200
C991        C  0.94963625  0.11839472  0.29597139    -0.10600
C992        C  0.95760761  0.09262874  0.29811405    -0.12200
C993        C  0.87833849  0.19380229  0.29836792    -0.10600
C994        C  0.85315313  0.20132993  0.29845447    -0.12200
C995        C  0.98832706  0.22237710  0.06005204    -0.10600
C996        C  0.50645376  0.24477295  0.06270903    -0.12200
C997        C  0.96135971  0.08315834  0.05751730    -0.10600
C998        C  0.95734391  0.11044448  0.05925428    -0.12200
C999        C  0.88158456  0.18683485  0.05787271    -0.10600
C1000       C  0.85597563  0.19579650  0.05620552    -0.12200
C1001       C  0.95008317  0.14291212  0.05974279     0.82800
N1002       N  0.97228851  0.16554523  0.56296360    -0.75500
C1003       C  0.96467229  0.19513818  0.56359007     0.85300
N1004       N  0.93486744  0.20040637  0.56257829    -0.75400
C1005       C  0.91327095  0.17933940  0.05908485     0.85400
N1006       N  0.92070787  0.14971594  0.05921263    -0.77100
C1007       C  0.94655989  0.14862033  0.79964084     0.82800
N1008       N  0.96904033  0.17143760  0.80196068    -0.75500
C1009       C  0.96237036  0.20070706  0.80359199     0.85300
N1010       N  0.93318551  0.20707561  0.80313304    -0.75400
C1011       C  0.91075902  0.18417716  0.80097640     0.85400
N1012       N  0.91746774  0.15499107  0.79925700    -0.77100
C1013       C  0.79488466  0.40228721  0.57180518     0.82800
N1014       N  0.77804579  0.41990338  0.58425389    -0.75500
C1015       C  0.78818219  0.44901404  0.59056849     0.85300
N1016       N  0.81472347  0.46087104  0.58371750    -0.75400
C1017       C  0.83158945  0.44344785  0.57110964     0.85400
N1018       N  0.82169985  0.41404911  0.56504192    -0.77100
C1019       C  0.78998042  0.40069122  0.81758257     0.82800
N1020       N  0.81721616  0.41109123  0.81100586    -0.75500
C1021       C  0.82848721  0.44009767  0.81720975     0.85300
N1022       N  0.81262121  0.45849951  0.82993884    -0.75400
C1023       C  0.78569556  0.44786277  0.83678641     0.85400
N1024       N  0.77422329  0.41913073  0.83035557    -0.77100
O1025       O  0.51536234  0.44733922  0.64471741    -0.78300
O1026       O  0.51578431  0.47836727  0.99743237    -0.63000
O1027       O  0.52336393  0.48537841  0.58921431    -1.09600
C1028       C  0.91240143  0.47965769  0.55345349     1.08600
O1029       O  0.98151690  0.51751941  0.98327119    -0.76200
O1030       O  0.95212415  0.04281663  0.52040578    -0.63700
Ni1031     Ni  0.54842343  0.45943238  0.62367629     1.34900
C1032       C  0.96336982  0.05000797  0.55017539     0.87400
O1033       O  0.56441120  0.48441765  0.55043393    -0.76700
O1034       O  0.58330370  0.47147055  0.60574846    -0.87000
C1035       C  0.50221658  0.49915863  0.97645212     0.86900
O1036       O  0.54213136  0.42117856  0.60334772    -0.65200
O1037       O  0.91494573  0.48791969  0.52391404    -0.84500
C1038       C  0.53251170  0.41426948  0.57333497     0.87800
C1039       C  0.58646920  0.48154813  0.57687690     1.09300
H1040       H  0.96881844  0.45613502  0.53785823     0.41100
O1041       O  0.97605034  0.47721833  0.54066938    -1.07100
O1042       O  0.97471079  0.02994861  0.57411788    -0.63800
Ni1043     Ni  0.97851165  0.48421889  0.58544272     1.26300
O1044       O  0.52284965  0.43449459  0.54895735    -0.64000
O1045       O  0.93486395  0.47935349  0.57962275    -0.76300
C1046       C  0.99688127  0.46674856  0.65244612     0.87100
O1047       O  0.98368903  0.48776126  0.63155460    -0.63500
Ni1048     Ni  0.94951494  0.50141248  0.50560117     1.27400
Ni1049     Ni  0.52080715  0.47953603  0.54412394     1.26100
H1050       H  0.52780194  0.00637800  0.58433490     0.41700
O1051       O  0.92244667  0.44763628  0.78630654    -0.78300
O1052       O  0.56657672  0.47824809  0.81120952    -0.63000
O1053       O  0.98489361  0.45664582  0.82234459    -1.09600
C1054       C  0.97744292  0.06371426  0.80600699     1.08600
O1055       O  0.57249750  0.01209165  0.84447268    -0.76200
O1056       O  0.52780623  0.02716540  0.87027113    -0.63700
Ni1057     Ni  0.95974500  0.42591769  0.79655051     1.34900
C1058       C  0.50778391  0.51098773  0.88068966     0.87400
O1059       O  0.53942516  0.42470105  0.82727797    -0.76700
O1060       O  0.99382290  0.39989463  0.80482251    -0.87000
C1061       C  0.58400573  0.49898222  0.82661237     0.86900
O1062       O  0.96593968  0.44262238  0.75478579    -0.65200
O1063       O  0.50525231  0.06532949  0.81431903    -0.84500
C1064       C  0.99023506  0.45444742  0.74776806     0.87800
C1065       C  0.52407475  0.40002515  0.81848401     1.09300
H1066       H  0.50884090  0.01260206  0.78080741     0.41100
O1067       O  0.51144844  0.00603826  0.80405863    -1.07100
O1068       O  0.98331899  0.50185266  0.86000594    -0.63800
Ni1069     Ni  0.97109281  0.49738669  0.81304260     1.26300
O1070       O  0.51589035  0.46073088  0.76942976    -0.64000
O1071       O  0.96102198  0.03864855  0.80282385    -0.76300
C1072       C  0.91364988  0.46448846  0.80441449     0.87100
O1073       O  0.93145213  0.48494910  0.81994001    -0.63500
Ni1074     Ni  0.53747682  0.03711368  0.82845505     1.27400
Ni1075     Ni  0.52644686  0.46585272  0.81651258     1.26100
H1076       H  0.98697105  0.44987680  0.84546701     0.41700
C1077       C  0.54415313  0.32250557  0.56297366     0.82800
N1078       N  0.52199613  0.29899577  0.56251188    -0.75500
C1079       C  0.52874974  0.26925666  0.56130721     0.85300
N1080       N  0.55793540  0.26336018  0.56068047    -0.75400
C1081       C  0.58030721  0.28633823  0.56124231     0.85400
N1082       N  0.57323793  0.31580630  0.56244200    -0.77100
C1083       C  0.55304588  0.31501296  0.82205814     0.82800
N1084       N  0.58125200  0.30714838  0.82076059    -0.75500
C1085       C  0.58547915  0.27796140  0.81580855     0.85300
N1086       N  0.56143160  0.25667124  0.81197240    -0.75400
C1087       C  0.53314362  0.26454670  0.81312594     0.85400
N1088       N  0.52902657  0.29373790  0.81813617    -0.77100
C1089       C  0.69718216  0.06037759  0.54461000     0.82800
N1090       N  0.67057705  0.04846946  0.55172576    -0.75500
C1091       C  0.66180625  0.01850785  0.54767608     0.85300
N1092       N  0.69605106  0.49624506  0.58724305    -0.75400
C1093       C  0.70590839  0.01265455  0.52958064     0.85400
N1094       N  0.71489237  0.04238832  0.53377944    -0.77100
C1095       C  0.70909454  0.05680418  0.82172332     0.82800
N1096       N  0.73183674  0.03693898  0.83111188    -0.75500
C1097       C  0.72527005  0.00720744  0.83963376     0.85300
N1098       N  0.69642169  0.49802206  0.83947909    -0.75400
C1099       C  0.67284889  0.01696945  0.82921960     0.85400
N1100       N  0.67951006  0.04699602  0.82091748    -0.77100
O1101       O  0.71963223  0.15995495  0.58419572    -0.78300
O1102       O  0.74886587  0.29892550  0.57427639    -0.63000
O1103       O  0.71882476  0.21823331  0.55260893    -1.09600
C1104       C  0.82627937  0.20745207  0.55527271     1.08600
O1105       O  0.77215080  0.30183821  0.53345226    -0.76200
O1106       O  0.77913333  0.25830186  0.99604641    -0.63700
Ni1107     Ni  0.69345478  0.19388553  0.57679605     1.34900
C1108       C  0.76138942  0.23550944  0.98561439     0.87400
O1109       O  0.69073406  0.27082796  0.56243262    -0.76700
O1110       O  0.66467961  0.22586711  0.57017482    -0.87000
C1111       C  0.76441667  0.31412192  0.55602743     0.86900
O1112       O  0.71340067  0.20491791  0.62100748    -0.65200
O1113       O  0.82835917  0.23668606  0.55242792    -0.84500
C1114       C  0.73090277  0.22765447  0.63200374     0.87800
C1115       C  0.66596994  0.25504622  0.56508279     1.09300
H1116       H  0.78442671  0.24188215  0.58952581     0.41100
O1117       O  0.77274631  0.24425433  0.56643318    -1.07100
O1118       O  0.75099264  0.21486787  0.50545515    -0.63800
Ni1119     Ni  0.75907988  0.20434586  0.55349094     1.26300
O1120       O  0.74007771  0.24893137  0.61298771    -0.64000
O1121       O  0.80073060  0.19187739  0.55527513    -0.76300
C1122       C  0.72691238  0.14855190  0.56078425     0.87100
O1123       O  0.74240047  0.16426352  0.54286424    -0.63500
Ni1124     Ni  0.79905601  0.26836629  0.54324585     1.27400
Ni1125     Ni  0.73239966  0.25841380  0.56480960     1.26100
H1126       H  0.70670269  0.22028464  0.52966685     0.41700
O1127       O  0.73017521  0.15863159  0.84005445    -0.78300
O1128       O  0.74759123  0.29632654  0.82288596    -0.63000
O1129       O  0.72173330  0.21432525  0.80432569    -1.09600
C1130       C  0.82611583  0.21125085  0.79873272     1.08600
O1131       O  0.76627562  0.30113616  0.77865417    -0.76200
O1132       O  0.77553423  0.25618158  0.74368458    -0.63700
Ni1133     Ni  0.70001568  0.18874278  0.83120216     1.34900
C1134       C  0.75825425  0.23290946  0.73406943     0.87400
O1135       O  0.69246090  0.26423410  0.81542555    -0.76700
O1136       O  0.66859760  0.21774392  0.82281996    -0.87000
C1137       C  0.75985608  0.31269324  0.80241435     0.86900
O1138       O  0.71859153  0.20302944  0.87434531    -0.65200
O1139       O  0.82610082  0.24034785  0.79387184    -0.84500
C1140       C  0.73602249  0.22625010  0.88387616     0.87800
C1141       C  0.66877673  0.24688931  0.81790007     1.09300
H1142       H  0.78699764  0.24282247  0.83597076     0.41100
O1143       O  0.77366713  0.24395557  0.81350686    -1.07100
O1144       O  0.75039398  0.21188883  0.75425859    -0.63800
Ni1145     Ni  0.76174067  0.20312993  0.80270065     1.26300
O1146       O  0.74474872  0.24650784  0.86352772    -0.64000
O1147       O  0.80273489  0.19375427  0.80187538    -0.76300
C1148       C  0.73535099  0.14623105  0.81616424     0.87100
O1149       O  0.74752682  0.16175661  0.79506749    -0.63500
Ni1150     Ni  0.79536984  0.26982288  0.78672248     1.27400
Ni1151     Ni  0.73360244  0.25501911  0.81501343     1.26100
H1152       H  0.70835711  0.21540262  0.78188480     0.41700
C1153       C  0.75235449  0.23240438  0.94969197    -0.10600
C1154       C  0.74563814  0.22989859  0.91966751    -0.12200
C1155       C  0.74768066  0.23036121  0.69823624    -0.10600
C1156       C  0.74036587  0.22934872  0.66803053    -0.12200
C1157       C  0.71720357  0.08832877  0.81485785    -0.10600
C1158       C  0.72631172  0.11468068  0.81319449    -0.12200
C1159       C  0.70768631  0.09147019  0.55007081    -0.10600
C1160       C  0.71734502  0.11736642  0.55487254    -0.12200
C1161       C  0.61544797  0.26947301  0.81500036    -0.10600
C1162       C  0.64030544  0.26065871  0.81551130    -0.12200
C1163       C  0.63730835  0.27024258  0.56252227    -0.10200
C1164       C  0.61177527  0.27899480  0.56149432    -0.12200
C1165       C  0.61501777  0.99967232  0.82792833    -0.10600
C1166       C  0.64165498  0.00647340  0.82852676    -0.12200
C1167       C  0.54777282  0.34627789  0.82492574    -0.10600
C1168       C  0.53953085  0.37187519  0.82394386    -0.12200
C1169       C  0.61664711  0.49206244  0.57440297    -0.10600
C1170       C  0.63416192  0.00518093  0.55534964    -0.12200
C1171       C  0.53371234  0.38181916  0.56718230    -0.10600
C1172       C  0.53731791  0.35470109  0.56467431    -0.12200
C1173       C  0.50842997  0.50661461  0.91524779    -0.10600
C1174       C  0.50691940  0.50302645  0.94373318    -0.12200
C1175       C  0.99219283  0.46302017  0.68512808    -0.10600
C1176       C  0.99037466  0.45935379  0.71348183    -0.12200
C1177       C  0.76733789  0.46814730  0.84645341    -0.10600
C1178       C  0.74927707  0.48601617  0.84821310    -0.12200
C1179       C  0.77764476  0.37028849  0.81111666    -0.10600
C1180       C  0.76792323  0.34437331  0.80668122    -0.12200
C1181       C  0.88262179  0.45942578  0.80739465    -0.10600
C1182       C  0.85744501  0.45125922  0.81105515    -0.12200
C1183       C  0.74961200  0.48658569  0.59872144    -0.10600
C1184       C  0.76838090  0.46877052  0.59877943    -0.12200
C1185       C  0.78370072  0.37150593  0.56529773    -0.10600
C1186       C  0.77384477  0.34558127  0.56081734    -0.12200
C1187       C  0.85920986  0.45679691  0.56320153    -0.10600
C1188       C  0.88272869  0.46847404  0.55769152    -0.12200
C1189       C  0.50740646  0.24218230  0.80856976    -0.10600
C1190       C  0.98635210  0.22475616  0.80627779    -0.12200
C1191       C  0.95390439  0.11759507  0.79899763    -0.10600
C1192       C  0.96248501  0.09208891  0.80055224    -0.12200
C1193       C  0.88001733  0.19074184  0.80087573    -0.10600
C1194       C  0.85463004  0.19799068  0.80043960    -0.12200
C1195       C  0.98782586  0.22141715  0.56462595    -0.10600
C1196       C  0.50541496  0.24343314  0.56120872    -0.12200
C1197       C  0.96205743  0.08250325  0.55666106    -0.10600
C1198       C  0.95810467  0.10952830  0.55958919    -0.12200
C1199       C  0.88075730  0.18360241  0.55964823    -0.10600
C1200       C  0.85494442  0.19203972  0.55812921    -0.12200
C1201       C  0.95092875  0.64069997  0.56039042     0.82800
N1202       N  0.97366844  0.66582310  0.06278402    -0.75500
C1203       C  0.96620848  0.69545804  0.06343142     0.85300
N1204       N  0.93663514  0.70085267  0.06308316    -0.75400
C1205       C  0.91354854  0.67638462  0.55995284     0.85400
N1206       N  0.92152424  0.64693416  0.56030123    -0.77100
C1207       C  0.94577024  0.64894942  0.30148116     0.82800
N1208       N  0.96838437  0.67144450  0.30222143    -0.75500
C1209       C  0.96198420  0.70112913  0.30179364     0.85300
N1210       N  0.93290188  0.70825643  0.30085973    -0.75400
C1211       C  0.91026089  0.68572512  0.30015476     0.85400
N1212       N  0.91673651  0.65606037  0.30057309    -0.77100
C1213       C  0.78835772  0.90588379  0.05325819     0.82800
N1214       N  0.76486238  0.92502192  0.04357524    -0.75500
C1215       C  0.77084071  0.95536357  0.03736256     0.85300
N1216       N  0.80027194  0.96679774  0.04123297    -0.75400
C1217       C  0.82385536  0.94776261  0.05088506     0.85400
N1218       N  0.81800983  0.91715628  0.05682642    -0.77100
C1219       C  0.79135455  0.90359623  0.32064531     0.82800
N1220       N  0.81828433  0.91415572  0.31353835    -0.75500
C1221       C  0.82891661  0.94352130  0.31850027     0.85300
N1222       N  0.81261351  0.96217159  0.33047521    -0.75400
C1223       C  0.78589714  0.95127084  0.33779215     0.85400
N1224       N  0.77513208  0.92219547  0.33251260    -0.77100
O1225       O  0.51229307  0.94798832  0.14075452    -0.78300
O1226       O  0.50747954  0.97425503  0.49023204    -0.63000
O1227       O  0.51952063  0.98697896  0.08581782    -1.09600
C1228       C  0.90990012  0.98228512  0.05031129     1.08600
O1229       O  0.98010434  0.01775295  0.47901252    -0.76200
O1230       O  0.95343229  0.54171643  0.02461756    -0.63700
Ni1231     Ni  0.54543484  0.96184991  0.12037372     1.34900
C1232       C  0.96539232  0.54982574  0.05389237     0.87400
O1233       O  0.56073375  0.98523081  0.04712290    -0.76700
O1234       O  0.58020451  0.97600693  0.10292678    -0.87000
C1235       C  0.49452629  0.99564815  0.46966948     0.86900
O1236       O  0.54154011  0.92362859  0.10005166    -0.65200
O1237       O  0.91236086  0.99193465  0.02106573    -0.84500
C1238       C  0.53033473  0.91584180  0.07050250     0.87800
C1239       C  0.58298361  0.98475473  0.07358930     1.09300
H1240       H  0.96454496  0.95813343  0.03280305     0.41100
O1241       O  0.97234774  0.97900086  0.03613135    -1.07100
O1242       O  0.97783888  0.53055202  0.07825094    -0.63800
Ni1243     Ni  0.97598758  0.98525567  0.08141762     1.26300
O1244       O  0.51833191  0.93547081  0.04618686    -0.64000
O1245       O  0.93244195  0.98024629  0.07642106    -0.76300
C1246       C  0.99663394  0.96755733  0.14883434     0.87100
O1247       O  0.98232686  0.98801062  0.12794030    -0.63500
Ni1248     Ni  0.94643081  0.00461126  0.00199584     1.27400
Ni1249     Ni  0.51691026  0.98092009  0.04084695     1.26100
H1250       H  0.52945777  0.50794436  0.09204427     0.41700
O1251       O  0.92071974  0.94481525  0.28624229    -0.78300
O1252       O  0.56387418  0.98011987  0.30749620    -0.63000
O1253       O  0.98333492  0.95817446  0.31847186    -1.09600
C1254       C  0.97748929  0.56391721  0.31331970     1.08600
O1255       O  0.57651472  0.51721488  0.34328525    -0.76200
O1256       O  0.53388255  0.52658747  0.37449069    -0.63700
Ni1257     Ni  0.95970600  0.92725594  0.29141446     1.34900
C1258       C  0.50264440  0.00949923  0.37453096     0.87400
O1259       O  0.53682058  0.92758767  0.32502364    -0.76700
O1260       O  0.99481107  0.90349977  0.29478684    -0.87000
C1261       C  0.58134233  0.00171656  0.32112115     0.86900
O1262       O  0.96416800  0.94906615  0.25089061    -0.65200
O1263       O  0.50702514  0.56777743  0.32233923    -0.84500
C1264       C  0.98977576  0.95748581  0.24456916     0.87800
C1265       C  0.52310500  0.90406596  0.31153363     1.09300
H1266       H  0.51130068  0.51708788  0.28373633     0.41100
O1267       O  0.51424696  0.51000742  0.30690662    -1.07100
O1268       O  0.97974996  0.00592576  0.35300764    -0.63800
Ni1269     Ni  0.97012068  0.99918144  0.30622558     1.26300
O1270       O  0.51292066  0.96181752  0.26554739    -0.64000
O1271       O  0.96198324  0.53951421  0.30413687    -0.76300
C1272       C  0.91213391  0.96569294  0.29997364     0.87100
O1273       O  0.92961845  0.98830896  0.31106501    -0.63500
Ni1274     Ni  0.54030414  0.54064404  0.33196344     1.27400
Ni1275     Ni  0.52364583  0.96839287  0.31258874     1.26100
H1276       H  0.98410236  0.95202528  0.34152616     0.41700
C1277       C  0.54480354  0.82333993  0.06332451     0.82800
N1278       N  0.52295270  0.79945081  0.06283516    -0.75500
C1279       C  0.53035247  0.76967394  0.06271862     0.85300
N1280       N  0.55990068  0.76409894  0.06311690    -0.75400
C1281       C  0.58204958  0.78731007  0.06366349     0.85400
N1282       N  0.57431389  0.81684500  0.06381423    -0.77100
C1283       C  0.55205557  0.81924095  0.31521093     0.82800
N1284       N  0.58058670  0.81079091  0.31600072    -0.75500
C1285       C  0.58548998  0.78088303  0.31534295     0.85300
N1286       N  0.56183558  0.75939004  0.31385905    -0.75400
C1287       C  0.53321418  0.76783557  0.31296660     0.85400
N1288       N  0.52833416  0.79780010  0.31360495    -0.77100
C1289       C  0.71091511  0.55773226  0.07679110     0.82800
N1290       N  0.68094206  0.54748397  0.07308688    -0.75500
C1291       C  0.67402357  0.51720254  0.07977722     0.85300
N1292       N  0.68154876  0.00180012  0.04663690    -0.75400
C1293       C  0.72680327  0.50782047  0.09414656     0.85400
N1294       N  0.73375114  0.53787533  0.08722909    -0.77100
C1295       C  0.71380903  0.55969830  0.32290048     0.82800
N1296       N  0.73579785  0.53900957  0.33301302    -0.75500
C1297       C  0.72787269  0.50943976  0.34089172     0.85300
N1298       N  0.69374118  0.00007776  0.33487817    -0.75400
C1299       C  0.67577675  0.52103111  0.32807386     0.85400
N1300       N  0.68372964  0.55086695  0.32056595    -0.77100
O1301       O  0.72355245  0.66194535  0.09041536    -0.78300
O1302       O  0.75095072  0.79973247  0.07575149    -0.63000
O1303       O  0.72132899  0.71866740  0.05534497    -1.09600
C1304       C  0.82809723  0.70842742  0.05579314     1.08600
O1305       O  0.77305467  0.80263476  0.03393363    -0.76200
O1306       O  0.77997352  0.75545917  0.49851664    -0.63700
Ni1307     Ni  0.69585882  0.69484132  0.07969234     1.34900
C1308       C  0.76160181  0.73313735  0.48796552     0.87400
O1309       O  0.69302136  0.77108050  0.06598834    -0.76700
O1310       O  0.66593680  0.72610055  0.07021313    -0.87000
C1311       C  0.76567593  0.81495640  0.05668476     0.86900
O1312       O  0.71370017  0.70814828  0.12334788    -0.65200
O1313       O  0.82914242  0.73755853  0.05000607    -0.84500
C1314       C  0.73273164  0.72994192  0.13408524     0.87800
C1315       C  0.66773778  0.75537780  0.06700839     1.09300
H1316       H  0.78728904  0.74387503  0.09022660     0.41100
O1317       O  0.77491500  0.74539257  0.06742013    -1.07100
O1318       O  0.75303555  0.71338846  0.00820905    -0.63800
Ni1319     Ni  0.76170860  0.70483452  0.05659563     1.26300
O1320       O  0.74376419  0.74962462  0.11499232    -0.64000
O1321       O  0.80341228  0.69265431  0.05870002    -0.76300
C1322       C  0.73194895  0.64889684  0.06878047     0.87100
O1323       O  0.74590242  0.66385969  0.04883814    -0.63500
Ni1324     Ni  0.79986980  0.76923681  0.04249123     1.27400
Ni1325     Ni  0.73465687  0.75904691  0.06687345     1.26100
H1326       H  0.70927220  0.72040876  0.03238530     0.41700
O1327       O  0.73066774  0.66169806  0.34053313    -0.78300
O1328       O  0.74845057  0.79936596  0.32633549    -0.63000
O1329       O  0.72240713  0.71802858  0.30547147    -1.09600
C1330       C  0.82648927  0.71506938  0.29898981     1.08600
O1331       O  0.76672681  0.80490652  0.28176124    -0.76200
O1332       O  0.77503438  0.76112795  0.24511702    -0.63700
Ni1333     Ni  0.70035968  0.69178316  0.33140594     1.34900
C1334       C  0.75868027  0.73734652  0.23553336     0.87400
O1335       O  0.69318350  0.76730060  0.31840076    -0.76700
O1336       O  0.66886309  0.72061731  0.32308030    -0.87000
C1337       C  0.76080220  0.81594696  0.30607994     0.86900
O1338       O  0.71807349  0.70538653  0.37494733    -0.65200
O1339       O  0.82627445  0.74417131  0.29374943    -0.84500
C1340       C  0.73597637  0.72799366  0.38544753     0.87800
C1341       C  0.66929318  0.74979999  0.31973677     1.09300
H1342       H  0.78787302  0.74635172  0.33766252     0.41100
O1343       O  0.77437678  0.74762580  0.31529007    -1.07100
O1344       O  0.75156451  0.71589305  0.25568012    -0.63800
Ni1345     Ni  0.76249214  0.70700395  0.30400179     1.26300
O1346       O  0.74547210  0.74853379  0.36585744    -0.64000
O1347       O  0.80346362  0.69767195  0.30332590    -0.76300
C1348       C  0.73713646  0.64972060  0.31707709     0.87100
O1349       O  0.74857982  0.66583436  0.29582662    -0.63500
Ni1350     Ni  0.79572019  0.77376591  0.28831862     1.27400
Ni1351     Ni  0.73430697  0.75835995  0.31740622     1.26100
H1352       H  0.70923338  0.71962939  0.28292398     0.41700
C1353       C  0.75197680  0.73106684  0.45184204    -0.10600
C1354       C  0.74535219  0.73024142  0.42153204    -0.12200
C1355       C  0.74857895  0.73442866  0.19984901    -0.10600
C1356       C  0.74172949  0.73254914  0.16984912    -0.12200
C1357       C  0.72286381  0.59106126  0.31670161    -0.10600
C1358       C  0.73075259  0.61772429  0.31495520    -0.12200
C1359       C  0.71883973  0.58958753  0.07063469    -0.10600
C1360       C  0.72595320  0.61652014  0.06810524    -0.12200
C1361       C  0.61574334  0.77198815  0.31641315    -0.10600
C1362       C  0.64080643  0.76334415  0.31761122    -0.12200
C1363       C  0.63917339  0.77085433  0.06495791    -0.10200
C1364       C  0.61377655  0.78002314  0.06420903    -0.12200
C1365       C  0.61735067  0.50463326  0.32435729    -0.10600
C1366       C  0.64408837  0.51139888  0.32554022    -0.12200
C1367       C  0.54679852  0.85082877  0.31589124    -0.10600
C1368       C  0.53893929  0.87645251  0.31528460    -0.12200
C1369       C  0.61274906  0.99625695  0.07010147    -0.10600
C1370       C  0.64258167  0.50586476  0.07634388    -0.12200
C1371       C  0.53244306  0.88306212  0.06505696    -0.10600
C1372       C  0.53702413  0.85578897  0.06365528    -0.12200
C1373       C  0.50149855  0.00362321  0.40858443    -0.10600
C1374       C  0.49911326  0.99951674  0.43679896    -0.12200
C1375       C  0.99296874  0.96430169  0.18207893    -0.10600
C1376       C  0.99093397  0.96173607  0.21043944    -0.12200
C1377       C  0.76646837  0.97145279  0.34588074    -0.10600
C1378       C  0.74713408  0.98854633  0.34598891    -0.12200
C1379       C  0.77939855  0.87309503  0.31503285    -0.10600
C1380       C  0.76936496  0.84730555  0.31093884    -0.12200
C1381       C  0.88151924  0.96220751  0.30443024    -0.10600
C1382       C  0.85704152  0.95493585  0.31043810    -0.12200
C1383       C  0.72745219  0.99300993  0.03100822    -0.10600
C1384       C  0.74653463  0.97567111  0.03076571    -0.12200
C1385       C  0.78126934  0.87372758  0.05836377    -0.10600
C1386       C  0.77351079  0.84689668  0.05949631    -0.12200
C1387       C  0.85469082  0.96025033  0.05368562    -0.10600
C1388       C  0.87994382  0.97141743  0.05350709    -0.12200
C1389       C  0.50811006  0.74508202  0.31109025    -0.10600
C1390       C  0.98630324  0.72478073  0.30358775    -0.12200
C1391       C  0.95316748  0.61758895  0.30366586    -0.10600
C1392       C  0.96226061  0.59211729  0.30730542    -0.12200
C1393       C  0.87970241  0.69327392  0.29991633    -0.10600
C1394       C  0.85472399  0.70151599  0.29982550    -0.12200
C1395       C  0.98918309  0.72171229  0.06378893    -0.10600
C1396       C  0.50719895  0.74348448  0.06226471    -0.12200
C1397       C  0.96369885  0.58254200  0.05915850    -0.10600
C1398       C  0.95949605  0.60973235  0.06092667    -0.12200
C1399       C  0.88268691  0.68448546  0.06083436    -0.10600
C1400       C  0.85695899  0.69324678  0.05905105    -0.12200
C1401       C  0.95183159  0.64191836  0.06188970     0.82800
N1402       N  0.97248349  0.66466941  0.55998571    -0.75500
C1403       C  0.96482813  0.69438592  0.55964371     0.85300
N1404       N  0.93533964  0.69980306  0.55961635    -0.75400
C1405       C  0.91455245  0.67753294  0.06207810     0.85400
N1406       N  0.92232531  0.64817070  0.06142442    -0.77100
C1407       C  0.94226419  0.64745945  0.80152144     0.82800
N1408       N  0.96561006  0.66934894  0.80518986    -0.75500
C1409       C  0.96032634  0.69851640  0.80879293     0.85300
N1410       N  0.93151055  0.70578059  0.80881309    -0.75400
C1411       C  0.90814635  0.68372340  0.80527873     0.85400
N1412       N  0.91355495  0.65455537  0.80171684    -0.77100
C1413       C  0.78670017  0.90526894  0.54783088     0.82800
N1414       N  0.76337842  0.92458012  0.53690580    -0.75500
C1415       C  0.76967175  0.95475278  0.52975720     0.85300
N1416       N  0.79927776  0.96583408  0.53395694    -0.75400
C1417       C  0.82272820  0.94667426  0.54482772     0.85400
N1418       N  0.81652114  0.91624673  0.55175914    -0.77100
C1419       C  0.79363955  0.90129476  0.82180941     0.82800
N1420       N  0.82052123  0.91160405  0.81444909    -0.75500
C1421       C  0.83120920  0.94103107  0.81891321     0.85300
N1422       N  0.81494445  0.96004625  0.83048837    -0.75400
C1423       C  0.78828288  0.94938885  0.83808380     0.85400
N1424       N  0.77753272  0.92021296  0.83342160    -0.77100
O1425       O  0.51537905  0.94774431  0.63905145    -0.78300
O1426       O  0.51160901  0.97873160  0.99438388    -0.63000
O1427       O  0.51993327  0.98541197  0.58191704    -1.09600
C1428       C  0.90945927  0.98182253  0.54664432     1.08600
O1429       O  0.97859115  0.01737045  0.97965701    -0.76200
O1430       O  0.95379567  0.54020977  0.52478978    -0.63700
Ni1431     Ni  0.54689043  0.96075386  0.61600219     1.34900
C1432       C  0.96485523  0.54847651  0.55415052     0.87400
O1433       O  0.55845428  0.98158512  0.54046097    -0.76700
O1434       O  0.58022507  0.97406404  0.59600395    -0.87000
C1435       C  0.49856604  0.00011984  0.97383575     0.86900
O1436       O  0.54166682  0.92198188  0.59652257    -0.65200
O1437       O  0.91235058  0.99121247  0.51748426    -0.84500
C1438       C  0.52908106  0.91356317  0.56747939     0.87800
C1439       C  0.58159611  0.98181188  0.56599833     1.09300
H1440       H  0.96430637  0.95787303  0.53021001     0.41100
O1441       O  0.97237374  0.97863234  0.53374223    -1.07100
O1442       O  0.97652677  0.52932379  0.57895000    -0.63800
Ni1443     Ni  0.97566064  0.98472847  0.57888418     1.26300
O1444       O  0.51600495  0.93264747  0.54319712    -0.64000
O1445       O  0.93175392  0.98053817  0.57314428    -0.76300
C1446       C  0.99564449  0.96663126  0.64611971     0.87100
O1447       O  0.98166532  0.98734378  0.62535339    -0.63500
Ni1448     Ni  0.94701645  0.00465248  0.49969529     1.27400
Ni1449     Ni  0.51503756  0.97798875  0.53673652     1.26100
H1450       H  0.53122786  0.50617055  0.59293930     0.41700
O1451       O  0.92239668  0.94860047  0.78122331    -0.78300
O1452       O  0.56538006  0.97680127  0.80884272    -0.63000
O1453       O  0.98504010  0.95541581  0.81702720    -1.09600
C1454       C  0.97387139  0.56388837  0.80691650     1.08600
O1455       O  0.57438387  0.51761506  0.84219776    -0.76200
O1456       O  0.53064603  0.52515602  0.87255750    -0.63700
Ni1457     Ni  0.95903307  0.92584460  0.79021675     1.34900
C1458       C  0.50584661  0.01125398  0.87850055     0.87400
O1459       O  0.53589024  0.92340194  0.82118852    -0.76700
O1460       O  0.99225610  0.89883873  0.79749477    -0.87000
C1461       C  0.58282528  0.99586597  0.82696350     0.86900
O1462       O  0.96581682  0.94328065  0.74887326    -0.65200
O1463       O  0.50268334  0.56483580  0.81959936    -0.84500
C1464       C  0.99033361  0.95497839  0.74215832     0.87800
C1465       C  0.51960768  0.89955126  0.81124833     1.09300
H1466       H  0.50949404  0.51257454  0.78268065     0.41100
O1467       O  0.51211026  0.50658088  0.80604946    -1.07100
O1468       O  0.98454877  0.99898713  0.85724734    -0.63800
Ni1469     Ni  0.97245429  0.99674604  0.80991569     1.26300
O1470       O  0.51465859  0.96145016  0.76516605    -0.64000
O1471       O  0.95825660  0.53849752  0.80352151    -0.76300
C1472       C  0.91442981  0.96480562  0.80060643     0.87100
O1473       O  0.93270855  0.98477676  0.81639026    -0.63500
Ni1474     Ni  0.53684165  0.53891116  0.82991109     1.27400
Ni1475     Ni  0.52450468  0.96491351  0.81255645     1.26100
H1476       H  0.98705379  0.94785848  0.83992876     0.41700
C1477       C  0.54376970  0.82122696  0.56130013     0.82800
N1478       N  0.52223283  0.79721213  0.56160495    -0.75500
C1479       C  0.52998868  0.76745227  0.56240134     0.85300
N1480       N  0.55962481  0.76200601  0.56295754    -0.75400
C1481       C  0.58145512  0.78543094  0.56268614     0.85400
N1482       N  0.57333176  0.81494278  0.56189461    -0.77100
C1483       C  0.54845151  0.81447561  0.81676341     0.82800
N1484       N  0.57738918  0.80719637  0.81796012    -0.75500
C1485       C  0.58342354  0.77767038  0.81734980     0.85300
N1486       N  0.56051538  0.75530463  0.81550219    -0.75400
C1487       C  0.53144506  0.76268742  0.81423772     0.85400
N1488       N  0.52543014  0.79231111  0.81479930    -0.77100
C1489       C  0.70843696  0.55674673  0.57304199     0.82800
N1490       N  0.67869619  0.54579031  0.56956150    -0.75500
C1491       C  0.67264658  0.51538393  0.57657892     0.85300
N1492       N  0.67959580  0.00064173  0.53685178    -0.75400
C1493       C  0.72555495  0.50731189  0.59102072     0.85400
N1494       N  0.73179780  0.53745856  0.58369324    -0.77100
C1495       C  0.71165938  0.55810571  0.82674627     0.82800
N1496       N  0.73392273  0.53763237  0.83592916    -0.75500
C1497       C  0.72631609  0.50770452  0.84252008     0.85300
N1498       N  0.69575599  0.99699687  0.83844551    -0.75400
C1499       C  0.67410826  0.51853276  0.83036300     0.85400
N1500       N  0.68167104  0.54866974  0.82402296    -0.77100
O1501       O  0.72297944  0.66073903  0.59003077    -0.78300
O1502       O  0.75106591  0.79890796  0.57570998    -0.63000
O1503       O  0.72094502  0.71775836  0.55567003    -1.09600
C1504       C  0.82746497  0.70719718  0.55523351     1.08600
O1505       O  0.77238274  0.80125405  0.53327263    -0.76200
O1506       O  0.77979031  0.75706381  0.99896714    -0.63700
Ni1507     Ni  0.69565129  0.69386372  0.58014084     1.34900
C1508       C  0.76194171  0.73437164  0.98866877     0.87400
O1509       O  0.69302417  0.77027827  0.56648769    -0.76700
O1510       O  0.66604054  0.72528655  0.57118070    -0.87000
C1511       C  0.76504650  0.81401524  0.55579253     0.86900
O1512       O  0.71404509  0.70676332  0.62392079    -0.65200
O1513       O  0.82883791  0.73639140  0.55031228    -0.84500
C1514       C  0.73294488  0.72860534  0.63484382     0.87800
C1515       C  0.66777179  0.75453760  0.56757814     1.09300
H1516       H  0.78708879  0.74243507  0.59012699     0.41100
O1517       O  0.77460265  0.74416661  0.56736127    -1.07100
O1518       O  0.75189583  0.71267167  0.50750992    -0.63800
Ni1519     Ni  0.76102195  0.70376397  0.55608004     1.26300
O1520       O  0.74377415  0.74859608  0.61573628    -0.64000
O1521       O  0.80255605  0.69145022  0.55748067    -0.76300
C1522       C  0.73051704  0.64790491  0.56768775     0.87100
O1523       O  0.74472647  0.66291613  0.54798333    -0.63500
Ni1524     Ni  0.79943222  0.76796238  0.54226329     1.27400
Ni1525     Ni  0.73457311  0.75806864  0.56732063     1.26100
H1526       H  0.70868381  0.71967003  0.53281111     0.41700
O1527       O  0.72858019  0.66114403  0.84382438    -0.78300
O1528       O  0.74673090  0.79891009  0.82615987    -0.63000
O1529       O  0.71997213  0.71711774  0.80749749    -1.09600
C1530       C  0.82415917  0.71309839  0.80188940     1.08600
O1531       O  0.76479024  0.80286187  0.78159338    -0.76200
O1532       O  0.77476747  0.75808086  0.74670041    -0.63700
Ni1533     Ni  0.69860415  0.69149493  0.83467410     1.34900
C1534       C  0.75728214  0.73498624  0.73691244     0.87400
O1535       O  0.69139390  0.76719262  0.81921714    -0.76700
O1536       O  0.66761233  0.72059991  0.82663108    -0.87000
C1537       C  0.75951857  0.81470999  0.80578161     0.86900
O1538       O  0.71727575  0.70578976  0.87747107    -0.65200
O1539       O  0.82467805  0.74223920  0.79730129    -0.84500
C1540       C  0.73487975  0.72881906  0.88694216     0.87800
C1541       C  0.66787836  0.74971002  0.82193948     1.09300
H1542       H  0.78544994  0.74501549  0.83884374     0.41100
O1543       O  0.77207029  0.74631373  0.81640588    -1.07100
O1544       O  0.74843818  0.71444318  0.75698771    -0.63800
Ni1545     Ni  0.75969126  0.70567458  0.80556455     1.26300
O1546       O  0.74362166  0.74916826  0.86670870    -0.64000
O1547       O  0.80045775  0.69593460  0.80460075    -0.76300
C1548       C  0.73440198  0.64861838  0.82037091     0.87100
O1549       O  0.74527423  0.66431734  0.79834291    -0.63500
Ni1550     Ni  0.79405896  0.77186582  0.78977895     1.27400
Ni1551     Ni  0.73224012  0.75776082  0.81825692     1.26100
H1552       H  0.70646136  0.71826502  0.78512841     0.41700
C1553       C  0.75193525  0.73249461  0.95279859    -0.10600
C1554       C  0.74487147  0.73168648  0.92263175    -0.12200
C1555       C  0.74791034  0.73203763  0.70104307    -0.10600
C1556       C  0.74179392  0.73078290  0.67086752    -0.12200
C1557       C  0.72023400  0.58974396  0.82120116    -0.10600
C1558       C  0.72789771  0.61648749  0.81915628    -0.12200
C1559       C  0.71571382  0.58883768  0.56735606    -0.10600
C1560       C  0.72320882  0.61574518  0.56579628    -0.12200
C1561       C  0.61401643  0.77032201  0.81848093    -0.10600
C1562       C  0.63946439  0.76301134  0.81969917    -0.12200
C1563       C  0.63904529  0.76983588  0.56496829    -0.10200
C1564       C  0.61334529  0.77850226  0.56366869    -0.12200
C1565       C  0.61595722  0.50193015  0.82701543    -0.10600
C1566       C  0.64265410  0.50844285  0.82806002    -0.12200
C1567       C  0.54200941  0.84564953  0.81679630    -0.10600
C1568       C  0.53404567  0.87123232  0.81545256    -0.12200
C1569       C  0.61073213  0.99325325  0.56070515    -0.10600
C1570       C  0.64182876  0.50319464  0.57405500    -0.12200
C1571       C  0.53098695  0.88074695  0.56241923    -0.10600
C1572       C  0.53570146  0.85354461  0.56116613    -0.12200
C1573       C  0.50573409  0.00782243  0.91291255    -0.10600
C1574       C  0.50362578  0.00447492  0.94122352    -0.12200
C1575       C  0.99207396  0.96326945  0.67932696    -0.10600
C1576       C  0.99065789  0.96000337  0.70786421    -0.12200
C1577       C  0.76883530  0.96977375  0.84586753    -0.10600
C1578       C  0.74918573  0.98641846  0.84625528    -0.12200
C1579       C  0.78112399  0.87100801  0.81580799    -0.10600
C1580       C  0.76997312  0.84566358  0.81098739    -0.12200
C1581       C  0.88391585  0.95970444  0.80511758    -0.10600
C1582       C  0.85941536  0.95211653  0.81089431    -0.12200
C1583       C  0.72638207  0.99291301  0.52238861    -0.10600
C1584       C  0.74551700  0.97545058  0.52243131    -0.12200
C1585       C  0.77936770  0.87324895  0.55449828    -0.10600
C1586       C  0.77200388  0.84631947  0.55717814    -0.12200
C1587       C  0.85388779  0.95897512  0.54852447    -0.10600
C1588       C  0.87932863  0.97035754  0.54920311    -0.12200
C1589       C  0.50691845  0.73936836  0.81197569    -0.10600
C1590       C  0.98545255  0.72138573  0.81271769    -0.12200
C1591       C  0.94863384  0.61659096  0.79936392    -0.10600
C1592       C  0.95787748  0.59150142  0.80072270    -0.12200
C1593       C  0.87765023  0.69124939  0.80494835    -0.10600
C1594       C  0.85243035  0.69927808  0.80397978    -0.12200
C1595       C  0.98766804  0.72061519  0.55923023    -0.10600
C1596       C  0.50705664  0.74123163  0.56279138    -0.12200
C1597       C  0.96303760  0.58123359  0.55900154    -0.10600
C1598       C  0.95875210  0.60846529  0.56029191    -0.12200
C1599       C  0.88181888  0.68325411  0.55933116    -0.10600
C1600       C  0.85618019  0.69193293  0.55806039    -0.12200
loop_ 
_geom_bond_atom_site_label_1 
_geom_bond_atom_site_label_2 
_geom_bond_distance 
_geom_bond_site_symmetry_2 
_ccdc_geom_bond_type 
C1            N6   1.373       .  A
C1          N202   1.376       .  A
C1          C398   1.494       .  S
N2            C3   1.376       .  A
N2          C201   1.376       .  A
C3            N4   1.366       .  A
C3          C195   1.486       .  S
N4          C205   1.366       .  A
C5            N6   1.371       .  A
C5          N204   1.365       .  A
C5          C399   1.479       .  S
C7            N8   1.359       .  A
C7           N12   1.354       .  A
C7          C191   1.432       .  S
N8            C9   1.358       .  A
C9           N10   1.359       .  A
C9          C190   1.442       .  S
N10          C11   1.360       .  A
C11          N12   1.354       .  A
C11         C193   1.434       .  S
C13          N14   1.353       .  A
C13          N18   1.360       .  A
C13         C185   1.433       .  S
N14          C15   1.352       .  A
C15          N16   1.352       .  A
C15         C184   1.419       .  S
N16          C17   1.353       .  A
C17          N18   1.360       .  A
C17         C187   1.430       .  S
C19          N20   1.358       .  A
C19          N24   1.350       .  A
C19         C179   1.427       .  S
N20          C21   1.359       .  A
C21          N22   1.355       .  A
C21         C182   1.431       .  S
N22          C23   1.354       .  A
C23          N24   1.350       .  A
C23         C177   1.419       .  S
O25         Ni31   1.934       .  S
O25         C846   1.275   1_455  A
O26        Ni249   1.898       .  S
O26          C35   1.268       .  A
O27         Ni31   1.903       .  S
O27         Ni49   1.895       .  S
O27        Ni843   1.905   1_455  S
O27         H450   0.967       .  S
C28         C188   1.429       .  S
C28          O45   1.276       .  A
C28          O37   1.277       .  A
O29        Ni248   1.932       .  S
O29         C835   1.274       .  A
O30        Ni448   1.934       .  S
O30          C32   1.271       .  A
Ni31         O34   1.926       .  S
Ni31         O36   1.934       .  S
C32         C197   1.491       .  S
C32          O42   1.285       .  A
O33         Ni49   1.914       .  S
O33          C39   1.275       .  A
O34          C39   1.278       .  A
C35         C174   1.431       .  S
C35         O829   1.276   1_455  A
O36          C38   1.271       .  A
O37         Ni48   1.925       .  S
C38         C171   1.490       .  S
C38          O44   1.285       .  A
C39         C169   1.430       .  S
H40          O41   0.967       .  S
O41         Ni43   1.895       .  S
O41         Ni48   1.902       .  S
O41        Ni849   1.910       .  S
O42        Ni443   1.985   1_545  S
Ni43         O47   1.905       .  S
Ni43         O45   1.912       .  S
Ni43        O442   1.984       .  S
Ni43        O827   1.908       .  S
O44         Ni49   1.983       .  S
C46         C175   1.432       .  S
C46          O47   1.270       .  A
C46         O825   1.273       .  A
Ni48        O229   1.928   1_554  S
Ni48        O430   1.932       .  S
Ni49        O226   1.896   1_554  S
Ni49        O841   1.907   1_455  S
H50         O427   0.967   1_545  S
O51         Ni57   1.918       .  S
O51          C72   1.264       .  A
O52         Ni75   1.907       .  S
O52          C61   1.265       .  A
O53         Ni57   1.915       .  S
O53         Ni69   1.911       .  S
O53        Ni875   1.907       .  S
O53          H76   0.960       .  S
C54         C192   1.430       .  S
C54          O71   1.269       .  A
C54         O863   1.268       .  A
O55         Ni74   1.916       .  S
O55         C461   1.266       .  A
O56         Ni74   1.900       .  S
O56         C458   1.266       .  A
Ni57         O60   1.911       .  S
Ni57         O62   1.908       .  S
C58         C173   1.431       .  S
C58         O456   1.265       .  A
C58         O868   1.268   1_455  A
O59         Ni75   1.913       .  S
O59          C65   1.271       .  A
O60         C865   1.272       .  A
C61         C565   1.431       .  S
C61         O455   1.266       .  A
O62          C64   1.266       .  A
O63         Ni74   1.918       .  S
O63         C854   1.268   1_455  A
C64         C176   1.432       .  S
C64         O870   1.268       .  A
C65         C168   1.429       .  S
C65         O860   1.270   1_455  A
H66          O67   0.961       .  S
O67         Ni74   1.927       .  S
O67        Ni475   1.917   1_545  S
O67       Ni1269   1.914   1_445  S
O68         Ni69   1.917       .  S
O68         C858   1.267       .  A
Ni69         O73   1.907       .  S
Ni69        O471   1.909       .  S
Ni69       O1267   1.911       .  S
O70         Ni75   1.926       .  S
O70         C864   1.270   1_455  A
O71        Ni469   1.913   1_545  S
C72         C181   1.430       .  S
C72          O73   1.263       .  A
Ni75        O853   1.915   1_455  S
Ni75        O467   1.915       .  S
C77          N78   1.377       .  A
C77          N82   1.370       .  A
C77         C172   1.491       .  S
N78          C79   1.377       .  A
C79          N80   1.366       .  A
C79         C196   1.486       .  S
N80          C81   1.366       .  A
C81          N82   1.369       .  A
C81         C164   1.474       .  S
C83          N84   1.354       .  A
C83          N88   1.358       .  A
C83         C167   1.431       .  S
N84          C85   1.354       .  A
C85          N86   1.360       .  A
C85         C161   1.431       .  S
N86          C87   1.359       .  A
C87          N88   1.357       .  A
C87         C189   1.442       .  S
C89          N90   1.359       .  A
C89          N94   1.353       .  A
C89         C159   1.431       .  S
N90          C91   1.359       .  A
C91         N492   1.353       .  A
C91         C170   1.429       .  S
N92         C491   1.353       .  A
N92         C493   1.353       .  A
C93          N94   1.353       .  A
C93         N492   1.353       .  A
C93         C583   1.422   1_545  S
C95          N96   1.350       .  A
C95         N100   1.358       .  A
C95         C157   1.428       .  S
N96          C97   1.350       .  A
C97         N498   1.354   1_545  A
C97         C578   1.417   1_545  S
N98         C497   1.355       .  A
N98         C499   1.355       .  A
C99         N100   1.359       .  A
C99         N498   1.354   1_545  A
C99         C166   1.428       .  S
O101       Ni107   1.921       .  S
O101        C122   1.269       .  A
O102       Ni125   1.914       .  S
O102        C111   1.272       .  A
O103       Ni107   1.912       .  S
O103       Ni125   1.901       .  S
O103       Ni119   1.946       .  S
O103        H126   0.965       .  S
C104        C200   1.474       .  S
C104        O121   1.288       .  A
C104        O113   1.278       .  A
O105       Ni124   1.922       .  S
O105        C111   1.269       .  A
O106       Ni324   1.921       .  S
O106        C108   1.268       .  A
Ni107       O110   1.932       .  S
Ni107       O112   1.917       .  S
C108        C153   1.463       .  S
C108        O318   1.276       .  A
O109       Ni125   1.970       .  S
O109        C115   1.289       .  A
O110        C115   1.277       .  A
C111        C186   1.432       .  S
O112        C114   1.269       .  A
O113       Ni124   1.935       .  S
C114        C156   1.456       .  S
C114        O120   1.277       .  A
C115        C163   1.473       .  S
H116        O117   0.964       .  S
O117       Ni125   1.944       .  S
O117       Ni119   1.898       .  S
O117       Ni124   1.910       .  S
O118       Ni119   1.949       .  S
O118        C308   1.276   1_554  A
Ni119       O123   1.910       .  S
Ni119       O121   1.968       .  S
O120       Ni125   1.948       .  S
C122        C160   1.430       .  S
C122        O123   1.269       .  A
Ni124       O306   1.916   1_554  S
O127       Ni133   1.908       .  S
O127        C148   1.265       .  A
O128       Ni151   1.908       .  S
O128        C137   1.268       .  A
O129       Ni133   1.901       .  S
O129       Ni151   1.894       .  S
O129       Ni145   1.924       .  S
O129        H152   0.966       .  S
C130        C194   1.432       .  S
C130        O147   1.282       .  A
C130        O139   1.275       .  A
O131       Ni150   1.911       .  S
O131        C137   1.266       .  A
O132       Ni150   1.915       .  S
O132        C134   1.267       .  A
Ni133       O136   1.912       .  S
Ni133       O138   1.917       .  S
C134        C155   1.456       .  S
C134        O144   1.276       .  A
O135       Ni151   1.928       .  S
O135        C141   1.280       .  A
O136        C141   1.275       .  A
C137        C180   1.426       .  S
O138        C140   1.267       .  A
O139       Ni150   1.913       .  S
C140        C154   1.462       .  S
C140        O146   1.278       .  A
C141        C162   1.429       .  S
H142        O143   0.966       .  S
O143       Ni151   1.923       .  S
O143       Ni145   1.897       .  S
O143       Ni150   1.905       .  S
O144       Ni145   1.951       .  S
Ni145       O149   1.917       .  S
Ni145       O147   1.933       .  S
O146       Ni151   1.956       .  S
C148        C158   1.427       .  S
C148        O149   1.270       .  A
C153        C154   1.222       .  T
C155        C156   1.219       .  T
C157        C158   1.202       .  T
C159        C160   1.203       .  T
C161        C162   1.203       .  T
C163        C164   1.229       .  T
C165        C461   1.426       .  S
C165        C166   1.201       .  T
C167        C168   1.203       .  T
C169        C570   1.203       .  T
C170        C569   1.202   1_545  T
C171        C172   1.239       .  T
C173        C174   1.203       .  T
C175        C176   1.204       .  T
C177        C178   1.196       .  T
C178        C497   1.418       .  S
C179        C180   1.201       .  T
C181        C182   1.203       .  T
C183        C493   1.418       .  S
C183        C184   1.195       .  T
C185        C186   1.204       .  T
C187        C188   1.203       .  T
C189        C990   1.210   1_455  T
C190        C989   1.210       .  T
C191        C192   1.204       .  T
C193        C194   1.205       .  T
C195        C996   1.236       .  T
C196        C995   1.236   1_455  T
C197        C198   1.239       .  T
C198        C201   1.492       .  S
C199        C205   1.476       .  S
C199        C200   1.230       .  T
C201        N206   1.371       .  A
N202        C203   1.376       .  A
C203        N204   1.365       .  A
C203        C395   1.484       .  S
C205        N206   1.370       .  A
C207        N208   1.357       .  A
C207        N212   1.355       .  A
C207        C391   1.432       .  S
N208        C209   1.356       .  A
C209        N210   1.360       .  A
C209        C390   1.443       .  S
N210        C211   1.362       .  A
C211        N212   1.356       .  A
C211        C393   1.438       .  S
C213        N214   1.353       .  A
C213        N218   1.360       .  A
C213        C385   1.432       .  S
N214        C215   1.352       .  A
C215        N216   1.353       .  A
C215        C384   1.421       .  S
N216        C217   1.353       .  A
C217        N218   1.360       .  A
C217        C387   1.430       .  S
C219        N220   1.356       .  A
C219        N224   1.350       .  A
C219        C379   1.425       .  S
N220        C221   1.357       .  A
C221        N222   1.355       .  A
C221        C382   1.428       .  S
N222        C223   1.355       .  A
C223        N224   1.351       .  A
C223        C377   1.418       .  S
O225       Ni231   1.927       .  S
O225       C1046   1.272   1_455  A
O226        C235   1.267   1_455  A
O227       Ni231   1.902       .  S
O227       Ni249   1.891       .  S
O227      Ni1043   1.904   1_455  S
O227        H650   0.967       .  S
C228        C388   1.429       .  S
C228        O245   1.274       .  A
C228        O237   1.277       .  A
O229       C1035   1.273       .  A
O230       Ni648   1.937       .  S
O230        C232   1.272       .  A
Ni231       O234   1.922       .  S
Ni231       O236   1.935       .  S
C232        C397   1.493       .  S
C232        O242   1.284       .  A
O233       Ni249   1.920       .  S
O233        C239   1.278       .  A
O234        C239   1.277       .  A
C235        C374   1.425   1_655  S
C235       O1029   1.273       .  A
O236        C238   1.271       .  A
O237       Ni248   1.925       .  S
C238        C371   1.493       .  S
C238        O244   1.285       .  A
C239        C369   1.432       .  S
H240        O241   0.967       .  S
O241      Ni1049   1.903       .  S
O241       Ni243   1.895       .  S
O241       Ni248   1.901       .  S
O242       Ni643   1.984   1_545  S
Ni243       O642   1.979       .  S
Ni243       O247   1.901       .  S
Ni243       O245   1.910       .  S
Ni243      O1027   1.903       .  S
O244       Ni249   1.984       .  S
C246        C375   1.431       .  S
C246       O1025   1.274       .  A
C246        O247   1.268       .  A
Ni248       O630   1.935       .  S
Ni249      O1041   1.912   1_455  S
H250        O627   0.967   1_545  S
O251       Ni257   1.926       .  S
O251        C272   1.267       .  A
O252       Ni275   1.908       .  S
O252        C261   1.264       .  A
O253       Ni257   1.921       .  S
O253      Ni1075   1.911       .  S
O253       Ni269   1.911       .  S
O253        H276   0.960       .  S
C254        C392   1.430       .  S
C254        O271   1.274       .  A
C254       O1063   1.272       .  A
O255       Ni274   1.921       .  S
O255        C661   1.266   1_545  A
O256       Ni274   1.909       .  S
O256        C658   1.266       .  A
Ni257       O260   1.923       .  S
Ni257       O262   1.904       .  S
C258        C373   1.424       .  S
C258        O656   1.264       .  A
C258       O1068   1.266   1_455  A
O259       Ni275   1.905       .  S
O259        C265   1.269       .  A
O260       C1065   1.272       .  A
C261        C765   1.429       .  S
C261        O655   1.264       .  A
O262        C264   1.266       .  A
O263       Ni274   1.914       .  S
O263       C1054   1.272   1_455  A
C264        C376   1.430       .  S
C264       O1070   1.269       .  A
C265        C368   1.427       .  S
C265       O1060   1.272   1_455  A
H266        O267   0.960       .  S
O267       Ni675   1.914   1_545  S
O267      Ni1469   1.908   1_445  S
O267       Ni274   1.917       .  S
O268       Ni269   1.917       .  S
O268       C1058   1.267       .  A
Ni269       O273   1.895       .  S
Ni269       O671   1.911       .  S
Ni269      O1467   1.914       .  S
O270       Ni275   1.922       .  S
O270       C1064   1.268   1_455  A
O271       Ni669   1.919   1_545  S
C272        C381   1.427       .  S
C272        O273   1.261       .  A
Ni275      O1053   1.913   1_455  S
Ni275       O667   1.911       .  S
C277        N278   1.377       .  A
C277        N282   1.371       .  A
C277        C372   1.494       .  S
N278        C279   1.377       .  A
C279        N280   1.366       .  A
C279        C396   1.489       .  S
N280        C281   1.366       .  A
C281        N282   1.370       .  A
C281        C364   1.477       .  S
C283        N284   1.355       .  A
C283        N288   1.357       .  A
C283        C367   1.429       .  S
N284        C285   1.356       .  A
C285        N286   1.359       .  A
C285        C361   1.434       .  S
N286        C287   1.358       .  A
C287        N288   1.356       .  A
C287        C389   1.439       .  S
C289        N290   1.358       .  A
C289        N294   1.352       .  A
C289        C359   1.425       .  S
N290        C291   1.358       .  A
C291        N692   1.352       .  A
C291        C370   1.427       .  S
N292        C691   1.354       .  A
N292        C693   1.354       .  A
C293        N692   1.352       .  A
C293        N294   1.352       .  A
C293        C783   1.420   1_545  S
C295        N296   1.350       .  A
C295        N300   1.358       .  A
C295        C357   1.428       .  S
N296        C297   1.351       .  A
C297        N698   1.356   1_545  A
C297        C778   1.420   1_545  S
N298        C697   1.354       .  A
N298        C699   1.355       .  A
C299        N698   1.356   1_545  A
C299        N300   1.360       .  A
C299        C366   1.434       .  S
O301       Ni307   1.919       .  S
O301        C322   1.269       .  A
O302       Ni325   1.912       .  S
O302        C311   1.271       .  A
O303       Ni307   1.910       .  S
O303       Ni325   1.897       .  S
O303       Ni319   1.950       .  S
O303        H326   0.965       .  S
C304        C400   1.478       .  S
C304        O321   1.289       .  A
C304        O313   1.279       .  A
O305       Ni324   1.920       .  S
O305        C311   1.269       .  A
O306        C308   1.268       .  A
Ni307       O310   1.935       .  S
Ni307       O312   1.917       .  S
C308        C353   1.456       .  S
O309       Ni325   1.972       .  S
O309        C315   1.290       .  A
O310        C315   1.278       .  A
C311        C386   1.432       .  S
O312        C314   1.268       .  A
O313       Ni324   1.939       .  S
C314        C356   1.458       .  S
C314        O320   1.278       .  A
C315        C363   1.476       .  S
H316        O317   0.965       .  S
O317       Ni325   1.948       .  S
O317       Ni319   1.893       .  S
O317       Ni324   1.910       .  S
O318       Ni319   1.953       .  S
Ni319       O323   1.901       .  S
Ni319       O321   1.972       .  S
O320       Ni325   1.953       .  S
C322        C360   1.424       .  S
C322        O323   1.267       .  A
O327       Ni333   1.909       .  S
O327        C348   1.265       .  A
O328       Ni351   1.906       .  S
O328        C337   1.267       .  A
O329       Ni333   1.903       .  S
O329       Ni351   1.895       .  S
O329       Ni345   1.923       .  S
O329        H352   0.966       .  S
C330        C394   1.436       .  S
C330        O347   1.281       .  A
C330        O339   1.275       .  A
O331       Ni350   1.915       .  S
O331        C337   1.266       .  A
O332       Ni350   1.912       .  S
O332        C334   1.267       .  A
Ni333       O336   1.916       .  S
Ni333       O338   1.912       .  S
C334        C355   1.457       .  S
C334        O344   1.278       .  A
O335       Ni351   1.930       .  S
O335        C341   1.280       .  A
O336        C341   1.275       .  A
C337        C380   1.425       .  S
O338        C340   1.266       .  A
O339       Ni350   1.916       .  S
C340        C354   1.455       .  S
C340        O346   1.275       .  A
C341        C362   1.434       .  S
H342        O343   0.966       .  S
O343       Ni351   1.923       .  S
O343       Ni345   1.900       .  S
O343       Ni350   1.905       .  S
O344       Ni345   1.953       .  S
Ni345       O349   1.915       .  S
Ni345       O347   1.933       .  S
O346       Ni351   1.950       .  S
C348        C358   1.427       .  S
C348        O349   1.270       .  A
C353        C354   1.218       .  T
C355        C356   1.219       .  T
C357        C358   1.202       .  T
C359        C360   1.200       .  T
C361        C362   1.205       .  T
C363        C364   1.230       .  T
C365        C661   1.433       .  S
C365        C366   1.205   1_565  T
C367        C368   1.201       .  T
C369        C770   1.204       .  T
C370        C769   1.201   1_545  T
C371        C372   1.240       .  T
C373        C374   1.200       .  T
C375        C376   1.203       .  T
C377        C378   1.195       .  T
C378        C697   1.417       .  S
C379        C380   1.200       .  T
C381        C382   1.201       .  T
C383        C693   1.422       .  S
C383        C384   1.197       .  T
C385        C386   1.204       .  T
C387        C388   1.203       .  T
C389       C1190   1.208   1_455  T
C390       C1189   1.211       .  T
C391        C392   1.203       .  T
C393        C394   1.207       .  T
C395       C1196   1.234       .  T
C396       C1195   1.237   1_455  T
C397        C398   1.240       .  T
C399        C400   1.232       .  T
C401        N602   1.376       .  A
C401        N406   1.373       .  A
C401        C798   1.491       .  S
N402        C601   1.377       .  A
N402        C403   1.376       .  A
C403        N404   1.366       .  A
C403        C595   1.487       .  S
N404        C605   1.366       .  A
C405        N604   1.367       .  A
C405        N406   1.371       .  A
C405        C799   1.481       .  S
C407        N408   1.357       .  A
C407        N412   1.356       .  A
C407        C591   1.430       .  S
N408        C409   1.356       .  A
C409        N410   1.357       .  A
C409        C590   1.439       .  S
N410        C411   1.359       .  A
C411        N412   1.356       .  A
C411        C593   1.433       .  S
C413        N414   1.353       .  A
C413        N418   1.361       .  A
C413        C585   1.433       .  S
N414        C415   1.352       .  A
C415        N416   1.354       .  A
C415        C584   1.423       .  S
N416        C417   1.355       .  A
C417        N418   1.361       .  A
C417        C587   1.438       .  S
C419        N420   1.356       .  A
C419        N424   1.349       .  A
C419        C579   1.421       .  S
N420        C421   1.357       .  A
C421        N422   1.354       .  A
C421        C582   1.428       .  S
N422        C423   1.355       .  A
C423        N424   1.350       .  A
C423        C577   1.416       .  S
O425       Ni431   1.933       .  S
O425       C1246   1.275   1_455  A
O426       Ni649   1.898       .  S
O426        C435   1.268   1_455  A
O427       Ni431   1.906       .  S
O427       Ni449   1.896       .  S
O427      Ni1243   1.906   1_455  S
C428        C588   1.437       .  S
C428        O445   1.276       .  A
C428        O437   1.278       .  A
O429       Ni648   1.934       .  S
O429       C1235   1.275   1_545  A
O430        C432   1.271       .  A
Ni431       O434   1.928       .  S
Ni431       O436   1.937       .  S
C432        C597   1.489       .  S
C432        O442   1.286       .  A
O433       Ni449   1.905       .  S
O433        C439   1.273       .  A
O434        C439   1.278       .  A
C435        C574   1.428   1_665  S
C435       O1229   1.274   1_565  A
O436        C438   1.272       .  A
O437       Ni448   1.930   1_565  S
C438        C571   1.495       .  S
C438        O444   1.287       .  A
C439        C569   1.428       .  S
H440        O441   0.966       .  S
O441      Ni1249   1.909       .  S
O441       Ni443   1.894       .  S
O441       Ni448   1.907   1_565  S
Ni443       O447   1.893       .  S
Ni443       O445   1.919       .  S
Ni443      O1227   1.908       .  S
O444       Ni449   1.988       .  S
C446        C575   1.426       .  S
C446       O1225   1.275       .  A
C446        O447   1.267       .  A
Ni448       O629   1.932   1_554  S
Ni449       O626   1.898   1_554  S
Ni449      O1241   1.903   1_455  S
O451       Ni457   1.913       .  S
O451        C472   1.266       .  A
O452       Ni475   1.900       .  S
O452        C461   1.263   1_565  A
O453       Ni457   1.926       .  S
O453      Ni1275   1.913       .  S
O453       Ni469   1.926       .  S
O453        H476   0.962       .  S
C454        C592   1.428       .  S
C454        O471   1.271       .  A
C454       O1263   1.273       .  A
O455       Ni474   1.920       .  S
O456       Ni474   1.905       .  S
Ni457       O460   1.920       .  S
Ni457       O462   1.897       .  S
C458        C573   1.428       .  S
C458       O1268   1.271   1_455  A
O459       Ni475   1.911       .  S
O459        C465   1.268       .  A
O460       C1265   1.266       .  A
O462        C464   1.268       .  A
O463       Ni474   1.923       .  S
O463       C1254   1.271   1_455  A
C464        C576   1.426       .  S
C464       O1270   1.275       .  A
C465        C568   1.435       .  S
C465       O1260   1.269   1_455  A
H466        O467   0.960       .  S
O467       Ni869   1.915   1_455  S
O467       Ni474   1.926       .  S
O468       Ni469   1.934   1_545  S
O468       C1258   1.272       .  A
Ni469       O473   1.903       .  S
Ni469       O867   1.908   1_565  S
O470       Ni475   1.936       .  S
O470       C1264   1.272   1_455  A
C472        C581   1.427       .  S
C472        O473   1.265       .  A
Ni475      O1253   1.911   1_455  S
C477        N478   1.377       .  A
C477        N482   1.373       .  A
C477        C572   1.496       .  S
N478        C479   1.377       .  A
C479        N480   1.365       .  A
C479        C596   1.486       .  S
N480        C481   1.365       .  A
C481        N482   1.372       .  A
C481        C564   1.479       .  S
C483        N484   1.357       .  A
C483        N488   1.359       .  A
C483        C567   1.436       .  S
N484        C485   1.358       .  A
C485        N486   1.359       .  A
C485        C561   1.437       .  S
N486        C487   1.358       .  A
C487        N488   1.357       .  A
C487        C589   1.441       .  S
C489        N490   1.359       .  A
C489        N494   1.352       .  A
C489        C559   1.428       .  S
N490        C491   1.359       .  A
C491        C570   1.431       .  S
C493        N494   1.351       .  A
C495        N496   1.350       .  A
C495        N500   1.358       .  A
C495        C557   1.426       .  S
N496        C497   1.350       .  A
C499        N500   1.359       .  A
C499        C566   1.432       .  S
O501       Ni507   1.917       .  S
O501        C522   1.269       .  A
O502       Ni525   1.915       .  S
O502        C511   1.272       .  A
O503       Ni507   1.905       .  S
O503       Ni525   1.894       .  S
O503       Ni519   1.946       .  S
O503        H526   0.964       .  S
C504        C600   1.477       .  S
C504        O521   1.290       .  A
C504        O513   1.278       .  A
O505       Ni524   1.918       .  S
O505        C511   1.269       .  A
O506       Ni724   1.915       .  S
O506        C508   1.268       .  A
Ni507       O510   1.936       .  S
Ni507       O512   1.916       .  S
C508        C553   1.458       .  S
C508        O718   1.277       .  A
O509       Ni525   1.975       .  S
O509        C515   1.291       .  A
O510        C515   1.279       .  A
C511        C586   1.432       .  S
O512        C514   1.268       .  A
O513       Ni524   1.935       .  S
C514        C556   1.458       .  S
C514        O520   1.278       .  A
C515        C563   1.478       .  S
H516        O517   0.963       .  S
O517       Ni525   1.948       .  S
O517       Ni519   1.895       .  S
O517       Ni524   1.906       .  S
O518       Ni519   1.949       .  S
O518        C708   1.277   1_554  A
Ni519       O523   1.911       .  S
Ni519       O521   1.975       .  S
O520       Ni525   1.953       .  S
C522        C560   1.426       .  S
C522        O523   1.271       .  A
Ni524       O706   1.916   1_554  S
O527       Ni533   1.911       .  S
O527        C548   1.266       .  A
O528       Ni551   1.899       .  S
O528        C537   1.266       .  A
O529       Ni533   1.900       .  S
O529       Ni551   1.889       .  S
O529       Ni545   1.921       .  S
O529        H552   0.966       .  S
C530        C594   1.433       .  S
C530        O547   1.279       .  A
C530        O539   1.276       .  A
O531       Ni550   1.916       .  S
O531        C537   1.266       .  A
O532       Ni550   1.912       .  S
O532        C534   1.266       .  A
Ni533       O536   1.919       .  S
Ni533       O538   1.914       .  S
C534        C555   1.458       .  S
C534        O544   1.278       .  A
O535       Ni551   1.929       .  S
O535        C541   1.280       .  A
O536        C541   1.277       .  A
C537        C580   1.420       .  S
O538        C540   1.266       .  A
O539       Ni550   1.919       .  S
C540        C554   1.458       .  S
C540        O546   1.277       .  A
C541        C562   1.436       .  S
H542        O543   0.967       .  S
O543       Ni551   1.923       .  S
O543       Ni545   1.896       .  S
O543       Ni550   1.904       .  S
O544       Ni545   1.955       .  S
Ni545       O549   1.910       .  S
Ni545       O547   1.926       .  S
O546       Ni551   1.954       .  S
C548        C558   1.424       .  S
C548        O549   1.269       .  A
C553        C554   1.220       .  T
C555        C556   1.220       .  T
C557        C558   1.200       .  T
C559        C560   1.201       .  T
C561        C562   1.207       .  T
C563        C564   1.232       .  T
C565        C566   1.203       .  T
C567        C568   1.206       .  T
C571        C572   1.242       .  T
C573        C574   1.202       .  T
C575        C576   1.200       .  T
C577        C578   1.194       .  T
C579        C580   1.197       .  T
C581        C582   1.201       .  T
C583        C584   1.198       .  T
C585        C586   1.204       .  T
C587        C588   1.207       .  T
C589       C1390   1.209   1_455  T
C590       C1389   1.208       .  T
C591        C592   1.202       .  T
C593        C594   1.205       .  T
C595       C1396   1.237       .  T
C596       C1395   1.236   1_455  T
C597        C598   1.239       .  T
C598        C601   1.491       .  S
C599        C605   1.478       .  S
C599        C600   1.231       .  T
C601        N606   1.372       .  A
N602        C603   1.375       .  A
C603        N604   1.366       .  A
C603        C795   1.486       .  S
C605        N606   1.370       .  A
C607        N608   1.357       .  A
C607        N612   1.355       .  A
C607        C791   1.429       .  S
N608        C609   1.355       .  A
C609        N610   1.357       .  A
C609        C790   1.436       .  S
N610        C611   1.358       .  A
C611        N612   1.355       .  A
C611        C793   1.430       .  S
C613        N614   1.353       .  A
C613        N618   1.362       .  A
C613        C785   1.437       .  S
N614        C615   1.352       .  A
C615        N616   1.352       .  A
C615        C784   1.421       .  S
N616        C617   1.353       .  A
C617        N618   1.362       .  A
C617        C787   1.435       .  S
C619        N620   1.358       .  A
C619        N624   1.350       .  A
C619        C779   1.428       .  S
N620        C621   1.359       .  A
C621        N622   1.355       .  A
C621        C782   1.432       .  S
N622        C623   1.355       .  A
C623        N624   1.351       .  A
C623        C777   1.420       .  S
O625       Ni631   1.928       .  S
O625       C1446   1.274   1_455  A
O626        C635   1.268   1_455  A
O627       Ni631   1.902       .  S
O627       Ni649   1.894       .  S
O627      Ni1443   1.909   1_455  S
C628        C788   1.433       .  S
C628        O645   1.276       .  A
C628        O637   1.278       .  A
O629       C1435   1.274       .  A
O630        C632   1.272       .  A
Ni631       O634   1.925       .  S
Ni631       O636   1.935       .  S
C632        C797   1.489       .  S
C632        O642   1.284       .  A
O633       Ni649   1.909       .  S
O633        C639   1.274       .  A
O634        C639   1.277       .  A
C635        C774   1.431   1_665  S
C635       O1429   1.275   1_565  A
O636        C638   1.272       .  A
O637       Ni648   1.927   1_565  S
C638        C771   1.493       .  S
C638        O644   1.286       .  A
C639        C769   1.427       .  S
H640        O641   0.967       .  S
O641      Ni1449   1.905       .  S
O641       Ni643   1.897       .  S
O641       Ni648   1.906   1_565  S
Ni643       O647   1.899       .  S
Ni643       O645   1.915       .  S
Ni643      O1427   1.907       .  S
O644       Ni649   1.987       .  S
C646        C775   1.431       .  S
C646       O1425   1.275       .  A
C646        O647   1.268       .  A
Ni649      O1441   1.904   1_455  S
O651       Ni657   1.925       .  S
O651        C672   1.267       .  A
O652       Ni675   1.912       .  S
O652        C661   1.266       .  A
O653       Ni657   1.916       .  S
O653      Ni1475   1.910       .  S
O653       Ni669   1.911       .  S
O653        H676   0.960       .  S
C654        C792   1.428       .  S
C654        O671   1.269       .  A
C654       O1463   1.269       .  A
O655       Ni674   1.919       .  S
O656       Ni674   1.901       .  S
Ni657       O660   1.918       .  S
Ni657       O662   1.902       .  S
C658        C773   1.430       .  S
C658       O1468   1.265   1_445  A
O659       Ni675   1.910       .  S
O659        C665   1.271       .  A
O660       C1465   1.272       .  A
O662        C664   1.266       .  A
O663       Ni674   1.913       .  S
O663       C1454   1.271   1_455  A
C664        C776   1.430       .  S
C664       O1470   1.269       .  A
C665        C768   1.429       .  S
C665       O1460   1.272   1_455  A
H666        O667   0.960       .  S
O667      Ni1069   1.913   1_455  S
O667       Ni674   1.920       .  S
O668       Ni669   1.915       .  S
O668       C1458   1.267   1_565  A
Ni669       O673   1.904       .  S
Ni669      O1067   1.910   1_565  S
O670       Ni675   1.925       .  S
O670       C1464   1.270   1_455  A
C672        C781   1.430       .  S
C672        O673   1.265       .  A
Ni675      O1453   1.912   1_455  S
C677        N678   1.376       .  A
C677        N682   1.373       .  A
C677        C772   1.495       .  S
N678        C679   1.376       .  A
C679        N680   1.366       .  A
C679        C796   1.484       .  S
N680        C681   1.366       .  A
C681        N682   1.372       .  A
C681        C764   1.481       .  S
C683        N684   1.354       .  A
C683        N688   1.356       .  A
C683        C767   1.430       .  S
N684        C685   1.355       .  A
C685        N686   1.361       .  A
C685        C761   1.432       .  S
N686        C687   1.360       .  A
C687        N688   1.355       .  A
C687        C789   1.439       .  S
C689        N690   1.359       .  A
C689        N694   1.353       .  A
C689        C759   1.431       .  S
N690        C691   1.359       .  A
C691        C770   1.433       .  S
C693        N694   1.353       .  A
C695        N696   1.349       .  A
C695        N700   1.358       .  A
C695        C757   1.425       .  S
N696        C697   1.349       .  A
C699        N700   1.359       .  A
C699        C766   1.430       .  S
O701       Ni707   1.921       .  S
O701        C722   1.269       .  A
O702       Ni725   1.921       .  S
O702        C711   1.273       .  A
O703       Ni707   1.913       .  S
O703       Ni725   1.903       .  S
O703       Ni719   1.950       .  S
O703        H726   0.964       .  S
C704        C800   1.480       .  S
C704        O721   1.289       .  A
C704        O713   1.278       .  A
O705       Ni724   1.921       .  S
O705        C711   1.269       .  A
O706        C708   1.268       .  A
Ni707       O710   1.936       .  S
Ni707       O712   1.921       .  S
C708        C753   1.456       .  S
O709       Ni725   1.977       .  S
O709        C715   1.290       .  A
O710        C715   1.277       .  A
C711        C786   1.436       .  S
O712        C714   1.270       .  A
O713       Ni724   1.940       .  S
C714        C756   1.460       .  S
C714        O720   1.277       .  A
C715        C763   1.480       .  S
H716        O717   0.963       .  S
O717       Ni725   1.948       .  S
O717       Ni719   1.901       .  S
O717       Ni724   1.912       .  S
O718       Ni719   1.951       .  S
Ni719       O723   1.914       .  S
Ni719       O721   1.973       .  S
O720       Ni725   1.950       .  S
C722        C760   1.431       .  S
C722        O723   1.271       .  A
O727       Ni733   1.907       .  S
O727        C748   1.264       .  A
O728       Ni751   1.909       .  S
O728        C737   1.269       .  A
O729       Ni733   1.900       .  S
O729       Ni751   1.892       .  S
O729       Ni745   1.918       .  S
O729        H752   0.966       .  S
C730        C794   1.428       .  S
C730        O747   1.277       .  A
C730        O739   1.276       .  A
O731       Ni750   1.916       .  S
O731        C737   1.268       .  A
O732       Ni750   1.916       .  S
O732        C734   1.268       .  A
Ni733       O736   1.908       .  S
Ni733       O738   1.910       .  S
C734        C755   1.460       .  S
C734        O744   1.277       .  A
O735       Ni751   1.932       .  S
O735        C741   1.282       .  A
O736        C741   1.275       .  A
C737        C780   1.427       .  S
O738        C740   1.265       .  A
O739       Ni750   1.918       .  S
C740        C754   1.455       .  S
C740        O746   1.276       .  A
C741        C762   1.430       .  S
H742        O743   0.966       .  S
O743       Ni751   1.921       .  S
O743       Ni745   1.896       .  S
O743       Ni750   1.902       .  S
O744       Ni745   1.954       .  S
Ni745       O749   1.909       .  S
Ni745       O747   1.919       .  S
O746       Ni751   1.952       .  S
C748        C758   1.423       .  S
C748        O749   1.267       .  A
C753        C754   1.218       .  T
C755        C756   1.221       .  T
C757        C758   1.199       .  T
C759        C760   1.204       .  T
C761        C762   1.203       .  T
C763        C764   1.233       .  T
C765        C766   1.203       .  T
C767        C768   1.202       .  T
C771        C772   1.241       .  T
C773        C774   1.203       .  T
C775        C776   1.203       .  T
C777        C778   1.196       .  T
C779        C780   1.201       .  T
C781        C782   1.203       .  T
C783        C784   1.197       .  T
C785        C786   1.207       .  T
C787        C788   1.205       .  T
C789       C1590   1.208   1_455  T
C790       C1589   1.206       .  T
C791        C792   1.202       .  T
C793        C794   1.202       .  T
C795       C1596   1.236       .  T
C796       C1595   1.235   1_455  T
C797        C798   1.238       .  T
C799        C800   1.233       .  T
C801       N1002   1.377       .  A
C801        N806   1.370       .  A
C801       C1198   1.491       .  S
N802       C1001   1.377       .  A
N802        C803   1.377       .  A
C803        N804   1.365       .  A
C803        C995   1.486       .  S
N804       C1005   1.365       .  A
C805       N1004   1.367       .  A
C805        N806   1.369       .  A
C805       C1199   1.477       .  S
C807        N808   1.358       .  A
C807        N812   1.354       .  A
C807        C991   1.431       .  S
N808        C809   1.357       .  A
C809        N810   1.360       .  A
C809        C990   1.443       .  S
N810        C811   1.361       .  A
C811        N812   1.355       .  A
C811        C993   1.435       .  S
C813        N814   1.353       .  A
C813        N818   1.360       .  A
C813        C985   1.432       .  S
N814        C815   1.352       .  A
C815        N816   1.353       .  A
C815        C984   1.421       .  S
N816        C817   1.353       .  A
C817        N818   1.360       .  A
C817        C987   1.432       .  S
C819        N820   1.358       .  A
C819        N824   1.350       .  A
C819        C979   1.428       .  S
N820        C821   1.359       .  A
C821        N822   1.355       .  A
C821        C982   1.434       .  S
N822        C823   1.355       .  A
C823        N824   1.351       .  A
C823        C977   1.419       .  S
O825       Ni831   1.930       .  S
O826      Ni1049   1.898       .  S
O826        C835   1.268       .  A
O827       Ni831   1.902       .  S
O827       Ni849   1.895       .  S
O827       H1250   0.967       .  S
C828        C988   1.431       .  S
C828        O845   1.275       .  A
C828        O837   1.277       .  A
O829      Ni1048   1.937       .  S
O830      Ni1248   1.934       .  S
O830        C832   1.271       .  A
Ni831       O834   1.926       .  S
Ni831       O836   1.934       .  S
C832        C997   1.493       .  S
C832        O842   1.286       .  A
O833       Ni849   1.922       .  S
O833        C839   1.277       .  A
O834        C839   1.278       .  A
C835        C974   1.427       .  S
O836        C838   1.271       .  A
O837       Ni848   1.926       .  S
C838        C971   1.489       .  S
C838        O844   1.284       .  A
C839        C969   1.436       .  S
H840        O841   0.967       .  S
O841       Ni843   1.895       .  S
O841       Ni848   1.903       .  S
O842      Ni1243   1.987   1_545  S
Ni843      O1242   1.982       .  S
Ni843       O847   1.902       .  S
Ni843       O845   1.913       .  S
O844       Ni849   1.981       .  S
C846        C975   1.433       .  S
C846        O847   1.269       .  A
Ni848      O1029   1.930   1_554  S
Ni848      O1230   1.933       .  S
Ni849      O1026   1.898   1_554  S
H850       O1227   0.967   1_545  S
O851       Ni857   1.925       .  S
O851        C872   1.266       .  A
O852       Ni875   1.913       .  S
O852        C861   1.268       .  A
O853       Ni857   1.925       .  S
O853       Ni869   1.911       .  S
O853        H876   0.960       .  S
C854        C992   1.429       .  S
C854        O871   1.268       .  A
O855       Ni874   1.916       .  S
O855       C1261   1.266       .  A
O856       Ni874   1.901       .  S
O856       C1258   1.266       .  A
Ni857       O860   1.916       .  S
Ni857       O862   1.907       .  S
C858        C973   1.427       .  S
C858       O1256   1.264       .  A
O859       Ni875   1.924       .  S
O859        C865   1.277       .  A
C861       C1365   1.432       .  S
C861       O1255   1.266       .  A
O862        C864   1.267       .  A
O863       Ni874   1.920       .  S
C864        C976   1.433       .  S
C865        C968   1.430       .  S
H866        O867   0.961       .  S
O867      Ni1275   1.912   1_545  S
O867       Ni874   1.925       .  S
O868       Ni869   1.925       .  S
Ni869       O873   1.904       .  S
Ni869      O1271   1.907       .  S
O870       Ni875   1.919       .  S
O871      Ni1269   1.910   1_545  S
C872        C981   1.432       .  S
C872        O873   1.263       .  A
Ni875      O1267   1.916       .  S
C877        N878   1.376       .  A
C877        N882   1.370       .  A
C877        C972   1.490       .  S
N878        C879   1.376       .  A
C879        N880   1.365       .  A
C879        C996   1.486       .  S
N880        C881   1.366       .  A
C881        N882   1.369       .  A
C881        C964   1.474       .  S
C883        N884   1.354       .  A
C883        N888   1.359       .  A
C883        C967   1.432       .  S
N884        C885   1.355       .  A
C885        N886   1.359       .  A
C885        C961   1.431       .  S
N886        C887   1.358       .  A
C887        N888   1.358       .  A
C887        C989   1.442       .  S
C889        N890   1.361       .  A
C889        N894   1.352       .  A
C889        C959   1.430       .  S
N890        C891   1.360       .  A
C891       N1292   1.352       .  A
C891        C970   1.432       .  S
N892       C1291   1.355       .  A
N892       C1293   1.354       .  A
C893       N1292   1.352       .  A
C893        N894   1.351       .  A
C893       C1383   1.418   1_545  S
C895        N896   1.349       .  A
C895        N900   1.357       .  A
C895        C957   1.426       .  S
N896        C897   1.350       .  A
C897       N1298   1.354       .  A
C897       C1378   1.417   1_545  S
N898       C1297   1.355       .  A
N898       C1299   1.355       .  A
C899       N1298   1.354       .  A
C899        N900   1.359       .  A
C899        C966   1.428       .  S
O901       Ni907   1.919       .  S
O901        C922   1.268       .  A
O902       Ni925   1.912       .  S
O902        C911   1.271       .  A
O903       Ni907   1.909       .  S
O903       Ni925   1.898       .  S
O903       Ni919   1.947       .  S
O903        H926   0.965       .  S
C904       C1000   1.473       .  S
C904        O921   1.289       .  A
C904        O913   1.279       .  A
O905       Ni924   1.920       .  S
O905        C911   1.269       .  A
O906      Ni1124   1.924       .  S
O906        C908   1.270       .  A
Ni907       O910   1.934       .  S
Ni907       O912   1.917       .  S
C908        C953   1.462       .  S
C908       O1118   1.276       .  A
O909       Ni925   1.967       .  S
O909        C915   1.288       .  A
O910        C915   1.278       .  A
C911        C986   1.432       .  S
O912        C914   1.268       .  A
O913       Ni924   1.936       .  S
C914        C956   1.457       .  S
C914        O920   1.277       .  A
C915        C963   1.472       .  S
H916        O917   0.964       .  S
O917       Ni925   1.944       .  S
O917       Ni919   1.895       .  S
O917       Ni924   1.909       .  S
O918       Ni919   1.949       .  S
O918       C1108   1.275   1_554  A
Ni919       O923   1.909       .  S
Ni919       O921   1.967       .  S
O920       Ni925   1.951       .  S
C922        C960   1.429       .  S
C922        O923   1.269       .  A
Ni924      O1106   1.923   1_554  S
O927       Ni933   1.912       .  S
O927        C948   1.267       .  A
O928       Ni951   1.907       .  S
O928        C937   1.267       .  A
O929       Ni933   1.904       .  S
O929       Ni951   1.896       .  S
O929       Ni945   1.923       .  S
O929        H952   0.966       .  S
C930        C994   1.434       .  S
C930        O947   1.281       .  A
C930        O939   1.275       .  A
O931       Ni950   1.914       .  S
O931        C937   1.266       .  A
O932       Ni950   1.915       .  S
O932        C934   1.267       .  A
Ni933       O936   1.915       .  S
Ni933       O938   1.919       .  S
C934        C955   1.456       .  S
C934        O944   1.276       .  A
O935       Ni951   1.925       .  S
O935        C941   1.278       .  A
O936        C941   1.275       .  A
C937        C980   1.427       .  S
O938        C940   1.268       .  A
O939       Ni950   1.914       .  S
C940        C954   1.462       .  S
C940        O946   1.276       .  A
C941        C962   1.430       .  S
H942        O943   0.966       .  S
O943       Ni951   1.922       .  S
O943       Ni945   1.898       .  S
O943       Ni950   1.907       .  S
O944       Ni945   1.949       .  S
Ni945       O949   1.910       .  S
Ni945       O947   1.932       .  S
O946       Ni951   1.953       .  S
C948        C958   1.425       .  S
C948        O949   1.268       .  A
C953        C954   1.222       .  T
C955        C956   1.219       .  T
C957        C958   1.200       .  T
C959        C960   1.202       .  T
C961        C962   1.203       .  T
C963        C964   1.228       .  T
C965       C1261   1.426       .  S
C965        C966   1.201       .  T
C967        C968   1.203       .  T
C969       C1370   1.206       .  T
C970       C1369   1.204   1_545  T
C971        C972   1.238       .  T
C973        C974   1.201       .  T
C975        C976   1.205       .  T
C977        C978   1.196       .  T
C978       C1297   1.419       .  S
C979        C980   1.202       .  T
C981        C982   1.204       .  T
C983       C1293   1.421       .  S
C983        C984   1.197       .  T
C985        C986   1.204       .  T
C987        C988   1.204       .  T
C991        C992   1.203       .  T
C993        C994   1.206       .  T
C997        C998   1.240       .  T
C998       C1001   1.493       .  S
C999       C1005   1.474       .  S
C999       C1000   1.229       .  T
C1001      N1006   1.371       .  A
N1002      C1003   1.377       .  A
C1003      N1004   1.367       .  A
C1003      C1195   1.489       .  S
C1005      N1006   1.370       .  A
C1007      N1008   1.358       .  A
C1007      N1012   1.355       .  A
C1007      C1191   1.434       .  S
N1008      C1009   1.357       .  A
C1009      N1010   1.358       .  A
C1009      C1190   1.440       .  S
N1010      C1011   1.359       .  A
C1011      N1012   1.355       .  A
C1011      C1193   1.433       .  S
C1013      N1014   1.353       .  A
C1013      N1018   1.361       .  A
C1013      C1185   1.434       .  S
N1014      C1015   1.353       .  A
C1015      N1016   1.352       .  A
C1015      C1184   1.419       .  S
N1016      C1017   1.353       .  A
C1017      N1018   1.361       .  A
C1017      C1187   1.434       .  S
C1019      N1020   1.359       .  A
C1019      N1024   1.352       .  A
C1019      C1179   1.431       .  S
N1020      C1021   1.360       .  A
C1021      N1022   1.353       .  A
C1021      C1182   1.432       .  S
N1022      C1023   1.353       .  A
C1023      N1024   1.352       .  A
C1023      C1177   1.418       .  S
O1025     Ni1031   1.932       .  S
O1026      C1035   1.267       .  A
O1027     Ni1031   1.904       .  S
O1027     Ni1049   1.896       .  S
O1027      H1450   0.967       .  S
C1028      C1188   1.434       .  S
C1028      O1045   1.273       .  A
C1028      O1037   1.278       .  A
O1030     Ni1448   1.938       .  S
O1030      C1032   1.272       .  A
Ni1031     O1034   1.926       .  S
Ni1031     O1036   1.931       .  S
C1032      C1197   1.491       .  S
C1032      O1042   1.283       .  A
O1033     Ni1049   1.905       .  S
O1033      C1039   1.273       .  A
O1034      C1039   1.278       .  A
C1035      C1174   1.426       .  S
O1036      C1038   1.271       .  A
O1037     Ni1048   1.934       .  S
C1038      C1171   1.484       .  S
C1038      O1044   1.283       .  A
C1039      C1169   1.425       .  S
H1040      O1041   0.966       .  S
O1041     Ni1043   1.896       .  S
O1041     Ni1048   1.906       .  S
O1042     Ni1443   1.980   1_545  S
Ni1043     O1442   1.979       .  S
Ni1043     O1047   1.895       .  S
Ni1043     O1045   1.909       .  S
O1044     Ni1049   1.977       .  S
C1046      C1175   1.424       .  S
C1046      O1047   1.267       .  A
Ni1048     O1430   1.935       .  S
H1050      O1427   0.967   1_545  S
O1051     Ni1057   1.922       .  S
O1051      C1072   1.265       .  A
O1052     Ni1075   1.906       .  S
O1052      C1061   1.265       .  A
O1053     Ni1057   1.918       .  S
O1053     Ni1069   1.910       .  S
O1053      H1076   0.960       .  S
C1054      C1192   1.433       .  S
C1054      O1071   1.276       .  A
O1055     Ni1074   1.922       .  S
O1055      C1461   1.266   1_545  A
O1056     Ni1074   1.905       .  S
O1056      C1458   1.266       .  A
Ni1057     O1060   1.921       .  S
Ni1057     O1062   1.898       .  S
C1058      C1173   1.426       .  S
C1058      O1456   1.264       .  A
O1059     Ni1075   1.916       .  S
O1059      C1065   1.272       .  A
C1061      C1565   1.428       .  S
C1061      O1455   1.265       .  A
O1062      C1064   1.264       .  A
O1063     Ni1074   1.913       .  S
C1064      C1176   1.424       .  S
C1065      C1168   1.435       .  S
H1066      O1067   0.960       .  S
O1067     Ni1475   1.914   1_545  S
O1067     Ni1074   1.917       .  S
O1068     Ni1069   1.914       .  S
Ni1069     O1073   1.909       .  S
Ni1069     O1471   1.911       .  S
O1070     Ni1075   1.925       .  S
O1071     Ni1469   1.924   1_545  S
C1072      C1181   1.431       .  S
C1072      O1073   1.266       .  A
Ni1075     O1467   1.919       .  S
C1077      N1078   1.375       .  A
C1077      N1082   1.369       .  A
C1077      C1172   1.486       .  S
N1078      C1079   1.375       .  A
C1079      N1080   1.365       .  A
C1079      C1196   1.483       .  S
N1080      C1081   1.365       .  A
C1081      N1082   1.368       .  A
C1081      C1164   1.473       .  S
C1083      N1084   1.357       .  A
C1083      N1088   1.359       .  A
C1083      C1167   1.436       .  S
N1084      C1085   1.357       .  A
C1085      N1086   1.360       .  A
C1085      C1161   1.436       .  S
N1086      C1087   1.359       .  A
C1087      N1088   1.357       .  A
C1087      C1189   1.443       .  S
C1089      N1090   1.360       .  A
C1089      N1094   1.354       .  A
C1089      C1159   1.432       .  S
N1090      C1091   1.360       .  A
C1091      N1492   1.352       .  A
C1091      C1170   1.431       .  S
N1092      C1491   1.351       .  A
N1092      C1493   1.350       .  A
C1093      N1492   1.352       .  A
C1093      N1094   1.353       .  A
C1093      C1583   1.422   1_545  S
C1095      N1096   1.348       .  A
C1095      N1100   1.358       .  A
C1095      C1157   1.424       .  S
N1096      C1097   1.349       .  A
C1097      N1498   1.356   1_545  A
C1097      C1578   1.419   1_545  S
N1098      C1497   1.354       .  A
N1098      C1499   1.353       .  A
C1099      N1498   1.357   1_545  A
C1099      N1100   1.360       .  A
C1099      C1166   1.435       .  S
O1101     Ni1107   1.922       .  S
O1101      C1122   1.270       .  A
O1102     Ni1125   1.914       .  S
O1102      C1111   1.271       .  A
O1103     Ni1107   1.912       .  S
O1103     Ni1125   1.899       .  S
O1103     Ni1119   1.946       .  S
O1103      H1126   0.965       .  S
C1104      C1200   1.475       .  S
C1104      O1121   1.290       .  A
C1104      O1113   1.277       .  A
O1105     Ni1124   1.921       .  S
O1105      C1111   1.269       .  A
O1106      C1108   1.269       .  A
Ni1107     O1110   1.935       .  S
Ni1107     O1112   1.917       .  S
C1108      C1153   1.461       .  S
O1109     Ni1125   1.967       .  S
O1109      C1115   1.288       .  A
O1110      C1115   1.278       .  A
C1111      C1186   1.433       .  S
O1112      C1114   1.268       .  A
O1113     Ni1124   1.932       .  S
C1114      C1156   1.456       .  S
C1114      O1120   1.276       .  A
C1115      C1163   1.472       .  S
H1116      O1117   0.965       .  S
O1117     Ni1125   1.946       .  S
O1117     Ni1119   1.898       .  S
O1117     Ni1124   1.911       .  S
O1118     Ni1119   1.948       .  S
Ni1119     O1123   1.909       .  S
Ni1119     O1121   1.973       .  S
O1120     Ni1125   1.949       .  S
C1122      C1160   1.431       .  S
C1122      O1123   1.270       .  A
O1127     Ni1133   1.909       .  S
O1127      C1148   1.266       .  A
O1128     Ni1151   1.907       .  S
O1128      C1137   1.268       .  A
O1129     Ni1133   1.901       .  S
O1129     Ni1151   1.891       .  S
O1129     Ni1145   1.922       .  S
O1129      H1152   0.966       .  S
C1130      C1194   1.432       .  S
C1130      O1147   1.280       .  A
C1130      O1139   1.274       .  A
O1131     Ni1150   1.917       .  S
O1131      C1137   1.267       .  A
O1132     Ni1150   1.914       .  S
O1132      C1134   1.267       .  A
Ni1133     O1136   1.916       .  S
Ni1133     O1138   1.918       .  S
C1134      C1155   1.455       .  S
C1134      O1144   1.276       .  A
O1135     Ni1151   1.930       .  S
O1135      C1141   1.280       .  A
O1136      C1141   1.276       .  A
C1137      C1180   1.429       .  S
O1138      C1140   1.268       .  A
O1139     Ni1150   1.913       .  S
C1140      C1154   1.461       .  S
C1140      O1146   1.276       .  A
C1141      C1162   1.434       .  S
H1142      O1143   0.966       .  S
O1143     Ni1151   1.921       .  S
O1143     Ni1145   1.898       .  S
O1143     Ni1150   1.905       .  S
O1144     Ni1145   1.950       .  S
Ni1145     O1149   1.910       .  S
Ni1145     O1147   1.930       .  S
O1146     Ni1151   1.951       .  S
C1148      C1158   1.423       .  S
C1148      O1149   1.268       .  A
C1153      C1154   1.221       .  T
C1155      C1156   1.218       .  T
C1157      C1158   1.199       .  T
C1159      C1160   1.204       .  T
C1161      C1162   1.206       .  T
C1163      C1164   1.228       .  T
C1165      C1461   1.434       .  S
C1165      C1166   1.205   1_565  T
C1167      C1168   1.206       .  T
C1169      C1570   1.200       .  T
C1170      C1569   1.203   1_545  T
C1171      C1172   1.235       .  T
C1173      C1174   1.200       .  T
C1175      C1176   1.199       .  T
C1177      C1178   1.195       .  T
C1178      C1497   1.418       .  S
C1179      C1180   1.203       .  T
C1181      C1182   1.204       .  T
C1183      C1493   1.419       .  S
C1183      C1184   1.196       .  T
C1185      C1186   1.205       .  T
C1187      C1188   1.205       .  T
C1191      C1192   1.205       .  T
C1193      C1194   1.204       .  T
C1197      C1198   1.239       .  T
C1199      C1200   1.230       .  T
C1201      N1402   1.376       .  A
C1201      N1206   1.370       .  A
C1201      C1598   1.488       .  S
N1202      C1401   1.377       .  A
N1202      C1203   1.376       .  A
C1203      N1204   1.365       .  A
C1203      C1395   1.485       .  S
N1204      C1405   1.365       .  A
C1205      N1404   1.365       .  A
C1205      N1206   1.369       .  A
C1205      C1599   1.474       .  S
C1207      N1208   1.358       .  A
C1207      N1212   1.356       .  A
C1207      C1391   1.432       .  S
N1208      C1209   1.356       .  A
C1209      N1210   1.358       .  A
C1209      C1390   1.440       .  S
N1210      C1211   1.360       .  A
C1211      N1212   1.357       .  A
C1211      C1393   1.436       .  S
C1213      N1214   1.352       .  A
C1213      N1218   1.360       .  A
C1213      C1385   1.431       .  S
N1214      C1215   1.352       .  A
C1215      N1216   1.352       .  A
C1215      C1384   1.418       .  S
N1216      C1217   1.352       .  A
C1217      N1218   1.360       .  A
C1217      C1387   1.429       .  S
C1219      N1220   1.357       .  A
C1219      N1224   1.349       .  A
C1219      C1379   1.424       .  S
N1220      C1221   1.358       .  A
C1221      N1222   1.356       .  A
C1221      C1382   1.433       .  S
N1222      C1223   1.356       .  A
C1223      N1224   1.350       .  A
C1223      C1377   1.417       .  S
O1225     Ni1231   1.933       .  S
O1226     Ni1449   1.899       .  S
O1226      C1235   1.268       .  A
O1227     Ni1231   1.903       .  S
O1227     Ni1249   1.893       .  S
C1228      C1388   1.428       .  S
C1228      O1245   1.274       .  A
C1228      O1237   1.278       .  A
O1229     Ni1448   1.932       .  S
O1230      C1232   1.271       .  A
Ni1231     O1234   1.928       .  S
Ni1231     O1236   1.937       .  S
C1232      C1397   1.489       .  S
C1232      O1242   1.285       .  A
O1233     Ni1249   1.914       .  S
O1233      C1239   1.275       .  A
O1234      C1239   1.278       .  A
C1235      C1374   1.430       .  S
O1236      C1238   1.272       .  A
O1237     Ni1248   1.926   1_565  S
C1238      C1371   1.497       .  S
C1238      O1244   1.288       .  A
C1239      C1369   1.431       .  S
H1240      O1241   0.967       .  S
O1241     Ni1243   1.898       .  S
O1241     Ni1248   1.906   1_565  S
Ni1243     O1247   1.899       .  S
Ni1243     O1245   1.910       .  S
O1244     Ni1249   1.992       .  S
C1246      C1375   1.430       .  S
C1246      O1247   1.268       .  A
Ni1248     O1429   1.937   1_554  S
Ni1249     O1426   1.899   1_554  S
O1251     Ni1257   1.922       .  S
O1251      C1272   1.267       .  A
O1252     Ni1275   1.901       .  S
O1252      C1261   1.265   1_565  A
O1253     Ni1257   1.925       .  S
O1253     Ni1269   1.918       .  S
O1253      H1276   0.962       .  S
C1254      C1392   1.431       .  S
C1254      O1271   1.269       .  A
O1255     Ni1274   1.920       .  S
O1256     Ni1274   1.902       .  S
Ni1257     O1260   1.927       .  S
Ni1257     O1262   1.902       .  S
C1258      C1373   1.429       .  S
O1259     Ni1275   1.910       .  S
O1259      C1265   1.266       .  A
O1262      C1264   1.267       .  A
O1263     Ni1274   1.920       .  S
C1264      C1376   1.429       .  S
C1265      C1368   1.430       .  S
H1266      O1267   0.960       .  S
O1267     Ni1274   1.916       .  S
O1268     Ni1269   1.931   1_545  S
Ni1269     O1273   1.903       .  S
O1270     Ni1275   1.937       .  S
C1272      C1381   1.432       .  S
C1272      O1273   1.265       .  A
C1277      N1278   1.378       .  A
C1277      N1282   1.374       .  A
C1277      C1372   1.498       .  S
N1278      C1279   1.377       .  A
C1279      N1280   1.365       .  A
C1279      C1396   1.488       .  S
N1280      C1281   1.366       .  A
C1281      N1282   1.372       .  A
C1281      C1364   1.480       .  S
C1283      N1284   1.355       .  A
C1283      N1288   1.359       .  A
C1283      C1367   1.432       .  S
N1284      C1285   1.355       .  A
C1285      N1286   1.359       .  A
C1285      C1361   1.433       .  S
N1286      C1287   1.357       .  A
C1287      N1288   1.357       .  A
C1287      C1389   1.439       .  S
C1289      N1290   1.360       .  A
C1289      N1294   1.353       .  A
C1289      C1359   1.431       .  S
N1290      C1291   1.360       .  A
C1291      C1370   1.436       .  S
C1293      N1294   1.352       .  A
C1295      N1296   1.350       .  A
C1295      N1300   1.358       .  A
C1295      C1357   1.423       .  S
N1296      C1297   1.351       .  A
C1299      N1300   1.358       .  A
C1299      C1366   1.433       .  S
O1301     Ni1307   1.922       .  S
O1301      C1322   1.269       .  A
O1302     Ni1325   1.914       .  S
O1302      C1311   1.271       .  A
O1303     Ni1307   1.909       .  S
O1303     Ni1325   1.898       .  S
O1303     Ni1319   1.946       .  S
O1303      H1326   0.964       .  S
C1304      C1400   1.474       .  S
C1304      O1321   1.288       .  A
C1304      O1313   1.278       .  A
O1305     Ni1324   1.918       .  S
O1305      C1311   1.268       .  A
O1306     Ni1524   1.917       .  S
O1306      C1308   1.268       .  A
Ni1307     O1310   1.937       .  S
Ni1307     O1312   1.915       .  S
C1308      C1353   1.462       .  S
C1308      O1518   1.279       .  A
O1309     Ni1325   1.975       .  S
O1309      C1315   1.291       .  A
O1310      C1315   1.279       .  A
C1311      C1386   1.430       .  S
O1312      C1314   1.268       .  A
O1313     Ni1324   1.937       .  S
C1314      C1356   1.451       .  S
C1314      O1320   1.275       .  A
C1315      C1363   1.479       .  S
H1316      O1317   0.963       .  S
O1317     Ni1325   1.946       .  S
O1317     Ni1319   1.897       .  S
O1317     Ni1324   1.908       .  S
O1318     Ni1319   1.950       .  S
O1318      C1508   1.277   1_554  A
Ni1319     O1323   1.912       .  S
Ni1319     O1321   1.968       .  S
O1320     Ni1325   1.942       .  S
C1322      C1360   1.430       .  S
C1322      O1323   1.270       .  A
Ni1324     O1506   1.910   1_554  S
O1327     Ni1333   1.912       .  S
O1327      C1348   1.266       .  A
O1328     Ni1351   1.905       .  S
O1328      C1337   1.268       .  A
O1329     Ni1333   1.900       .  S
O1329     Ni1351   1.891       .  S
O1329     Ni1345   1.921       .  S
O1329      H1352   0.966       .  S
C1330      C1394   1.435       .  S
C1330      O1347   1.278       .  A
C1330      O1339   1.276       .  A
O1331     Ni1350   1.914       .  S
O1331      C1337   1.266       .  A
O1332     Ni1350   1.911       .  S
O1332      C1334   1.266       .  A
Ni1333     O1336   1.914       .  S
Ni1333     O1338   1.915       .  S
C1334      C1355   1.451       .  S
C1334      O1344   1.275       .  A
O1335     Ni1351   1.933       .  S
O1335      C1341   1.281       .  A
O1336      C1341   1.275       .  A
C1337      C1380   1.423       .  S
O1338      C1340   1.267       .  A
O1339     Ni1350   1.920       .  S
C1340      C1354   1.461       .  S
C1340      O1346   1.278       .  A
C1341      C1362   1.433       .  S
H1342      O1343   0.966       .  S
O1343     Ni1351   1.925       .  S
O1343     Ni1345   1.895       .  S
O1343     Ni1350   1.906       .  S
O1344     Ni1345   1.945       .  S
Ni1345     O1349   1.903       .  S
Ni1345     O1347   1.927       .  S
O1346     Ni1351   1.956       .  S
C1348      C1358   1.421       .  S
C1348      O1349   1.266       .  A
C1353      C1354   1.222       .  T
C1355      C1356   1.215       .  T
C1357      C1358   1.198       .  T
C1359      C1360   1.203       .  T
C1361      C1362   1.205       .  T
C1363      C1364   1.232       .  T
C1365      C1366   1.204       .  T
C1367      C1368   1.203       .  T
C1371      C1372   1.243       .  T
C1373      C1374   1.203   1_545  T
C1375      C1376   1.203       .  T
C1377      C1378   1.195       .  T
C1379      C1380   1.199       .  T
C1381      C1382   1.204       .  T
C1383      C1384   1.195       .  T
C1385      C1386   1.203       .  T
C1387      C1388   1.202       .  T
C1391      C1392   1.204       .  T
C1393      C1394   1.206       .  T
C1397      C1398   1.238       .  T
C1398      C1401   1.490       .  S
C1399      C1405   1.475       .  S
C1399      C1400   1.229       .  T
C1401      N1406   1.371       .  A
N1402      C1403   1.375       .  A
C1403      N1404   1.365       .  A
C1403      C1595   1.484       .  S
C1405      N1406   1.369       .  A
C1407      N1408   1.355       .  A
C1407      N1412   1.354       .  A
C1407      C1591   1.426       .  S
N1408      C1409   1.354       .  A
C1409      N1410   1.359       .  A
C1409      C1590   1.439       .  S
N1410      C1411   1.361       .  A
C1411      N1412   1.355       .  A
C1411      C1593   1.432       .  S
C1413      N1414   1.354       .  A
C1413      N1418   1.362       .  A
C1413      C1585   1.436       .  S
N1414      C1415   1.353       .  A
C1415      N1416   1.353       .  A
C1415      C1584   1.422       .  S
N1416      C1417   1.353       .  A
C1417      N1418   1.361       .  A
C1417      C1587   1.435       .  S
C1419      N1420   1.357       .  A
C1419      N1424   1.349       .  A
C1419      C1579   1.425       .  S
N1420      C1421   1.358       .  A
C1421      N1422   1.356       .  A
C1421      C1582   1.432       .  S
N1422      C1423   1.356       .  A
C1423      N1424   1.350       .  A
C1423      C1577   1.418       .  S
O1425     Ni1431   1.934       .  S
O1426      C1435   1.269   1_565  A
O1427     Ni1431   1.904       .  S
O1427     Ni1449   1.897       .  S
C1428      C1588   1.434       .  S
C1428      O1445   1.277       .  A
C1428      O1437   1.278       .  A
O1430      C1432   1.272       .  A
Ni1431     O1434   1.926       .  S
Ni1431     O1436   1.937       .  S
C1432      C1597   1.488       .  S
C1432      O1442   1.284       .  A
O1433     Ni1449   1.911       .  S
O1433      C1439   1.274       .  A
O1434      C1439   1.277       .  A
C1435      C1574   1.428       .  S
O1436      C1438   1.272       .  A
O1437     Ni1448   1.925   1_565  S
C1438      C1571   1.493       .  S
C1438      O1444   1.286       .  A
C1439      C1569   1.430       .  S
H1440      O1441   0.967       .  S
O1441     Ni1443   1.894       .  S
O1441     Ni1448   1.903   1_565  S
Ni1443     O1447   1.898       .  S
Ni1443     O1445   1.920       .  S
O1444     Ni1449   1.986       .  S
C1446      C1575   1.426       .  S
C1446      O1447   1.268       .  A
O1451     Ni1457   1.926       .  S
O1451      C1472   1.268       .  A
O1452     Ni1475   1.912       .  S
O1452      C1461   1.266       .  A
O1453     Ni1457   1.917       .  S
O1453     Ni1469   1.916       .  S
O1453      H1476   0.960       .  S
C1454      C1592   1.425       .  S
C1454      O1471   1.271       .  A
O1455     Ni1474   1.917       .  S
O1456     Ni1474   1.901       .  S
Ni1457     O1460   1.923       .  S
Ni1457     O1462   1.901       .  S
C1458      C1573   1.427       .  S
O1459     Ni1475   1.907       .  S
O1459      C1465   1.271       .  A
O1462      C1464   1.266       .  A
O1463     Ni1474   1.914       .  S
C1464      C1576   1.427       .  S
C1465      C1568   1.423       .  S
H1466      O1467   0.960       .  S
O1467     Ni1474   1.925       .  S
O1468     Ni1469   1.912       .  S
Ni1469     O1473   1.903       .  S
O1470     Ni1475   1.925       .  S
C1472      C1581   1.431       .  S
C1472      O1473   1.264       .  A
C1477      N1478   1.376       .  A
C1477      N1482   1.372       .  A
C1477      C1572   1.494       .  S
N1478      C1479   1.376       .  A
C1479      N1480   1.366       .  A
C1479      C1596   1.486       .  S
N1480      C1481   1.366       .  A
C1481      N1482   1.371       .  A
C1481      C1564   1.478       .  S
C1483      N1484   1.351       .  A
C1483      N1488   1.356       .  A
C1483      C1567   1.424       .  S
N1484      C1485   1.352       .  A
C1485      N1486   1.359       .  A
C1485      C1561   1.425       .  S
N1486      C1487   1.358       .  A
C1487      N1488   1.355       .  A
C1487      C1589   1.436       .  S
C1489      N1490   1.360       .  A
C1489      N1494   1.354       .  A
C1489      C1559   1.432       .  S
N1490      C1491   1.360       .  A
C1491      C1570   1.426       .  S
C1493      N1494   1.353       .  A
C1495      N1496   1.351       .  A
C1495      N1500   1.357       .  A
C1495      C1557   1.425       .  S
N1496      C1497   1.351       .  A
C1499      N1500   1.358       .  A
C1499      C1566   1.429       .  S
O1501     Ni1507   1.921       .  S
O1501      C1522   1.270       .  A
O1502     Ni1525   1.919       .  S
O1502      C1511   1.273       .  A
O1503     Ni1507   1.908       .  S
O1503     Ni1525   1.899       .  S
O1503     Ni1519   1.945       .  S
O1503      H1526   0.964       .  S
C1504      C1600   1.473       .  S
C1504      O1521   1.289       .  A
C1504      O1513   1.278       .  A
O1505     Ni1524   1.920       .  S
O1505      C1511   1.270       .  A
O1506      C1508   1.266       .  A
Ni1507     O1510   1.934       .  S
Ni1507     O1512   1.917       .  S
C1508      C1553   1.451       .  S
O1509     Ni1525   1.975       .  S
O1509      C1515   1.291       .  A
O1510      C1515   1.278       .  A
C1511      C1586   1.434       .  S
O1512      C1514   1.268       .  A
O1513     Ni1524   1.935       .  S
C1514      C1556   1.458       .  S
C1514      O1520   1.278       .  A
C1515      C1563   1.477       .  S
H1516      O1517   0.963       .  S
O1517     Ni1525   1.946       .  S
O1517     Ni1519   1.898       .  S
O1517     Ni1524   1.908       .  S
O1518     Ni1519   1.958       .  S
Ni1519     O1523   1.915       .  S
Ni1519     O1521   1.970       .  S
O1520     Ni1525   1.954       .  S
C1522      C1560   1.432       .  S
C1522      O1523   1.271       .  A
O1527     Ni1533   1.910       .  S
O1527      C1548   1.266       .  A
O1528     Ni1551   1.906       .  S
O1528      C1537   1.268       .  A
O1529     Ni1533   1.901       .  S
O1529     Ni1551   1.893       .  S
O1529     Ni1545   1.918       .  S
O1529      H1552   0.966       .  S
C1530      C1594   1.430       .  S
C1530      O1547   1.279       .  A
C1530      O1539   1.275       .  A
O1531     Ni1550   1.911       .  S
O1531      C1537   1.266       .  A
O1532     Ni1550   1.913       .  S
O1532      C1534   1.267       .  A
Ni1533     O1536   1.907       .  S
Ni1533     O1538   1.907       .  S
C1534      C1555   1.458       .  S
C1534      O1544   1.278       .  A
O1535     Ni1551   1.926       .  S
O1535      C1541   1.280       .  A
O1536      C1541   1.274       .  A
C1537      C1580   1.424       .  S
O1538      C1540   1.264       .  A
O1539     Ni1550   1.913       .  S
C1540      C1554   1.451       .  S
C1540      O1546   1.276       .  A
C1541      C1562   1.424       .  S
H1542      O1543   0.966       .  S
O1543     Ni1551   1.921       .  S
O1543     Ni1545   1.894       .  S
O1543     Ni1550   1.902       .  S
O1544     Ni1545   1.955       .  S
Ni1545     O1549   1.909       .  S
Ni1545     O1547   1.927       .  S
O1546     Ni1551   1.949       .  S
C1548      C1558   1.424       .  S
C1548      O1549   1.269       .  A
C1553      C1554   1.215       .  T
C1555      C1556   1.220       .  T
C1557      C1558   1.200       .  T
C1559      C1560   1.204       .  T
C1561      C1562   1.200       .  T
C1563      C1564   1.231       .  T
C1565      C1566   1.202       .  T
C1567      C1568   1.199       .  T
C1571      C1572   1.240       .  T
C1573      C1574   1.202       .  T
C1575      C1576   1.201       .  T
C1577      C1578   1.196       .  T
C1579      C1580   1.200       .  T
C1581      C1582   1.204       .  T
C1583      C1584   1.198       .  T
C1585      C1586   1.206       .  T
C1587      C1588   1.206       .  T
C1591      C1592   1.200       .  T
C1593      C1594   1.203       .  T
C1597      C1598   1.237       .  T
C1599      C1600   1.229       .  T
