geometry optimzed in LAMMPS
_audit_creation_date              2020-11-30 
_audit_creation_method            'lammps2cif' 
_symmetry_space_group_name_H-M    'P1' 
_symmetry_Int_Tables_number       1 
_symmetry_cell_setting            triclinic 
loop_ 
_symmetry_equiv_pos_as_xyz 
  x,y,z 
_cell_length_a                    40.97097622 
_cell_length_b                    40.87854459739965 
_cell_length_c                    32.84239560652266 
_cell_angle_alpha                 90.57085218186046 
_cell_angle_beta                  91.38707416402349 
_cell_angle_gamma                 120.1846831370698 
loop_ 
_atom_site_label 
_atom_site_type_symbol 
_atom_site_fract_x 
_atom_site_fract_y 
_atom_site_fract_z 
_atom_site_charge 
C1          C  0.40746238  0.23018453  0.08137840     0.79200
N2          N  0.41312486  0.21523145  0.11592554    -0.79100
C3          C  0.42001407  0.18616692  0.11398063     0.81600
N4          N  0.42068829  0.17172926  0.07693852    -0.79100
C5          C  0.41532689  0.18614097  0.04203726     0.81700
N6          N  0.40896730  0.21580659  0.04416373    -0.80800
C7          C  0.24206412  0.80929525  0.36141292     0.79200
N8          N  0.23439054  0.79274229  0.39853344    -0.79100
C9          C  0.20861071  0.75529569  0.40128061     0.81600
N10         N  0.19063447  0.73489790  0.36691285    -0.79100
C11         C  0.19759165  0.75081729  0.32982592     0.81700
N12         N  0.22350357  0.78817900  0.32719655    -0.80800
C13         C  0.73020737  0.13055092  0.08886723     0.79200
N14         N  0.74113564  0.14992062  0.12519561    -0.79100
C15         C  0.76924128  0.18651526  0.12722371     0.81600
N16         N  0.78659883  0.20353806  0.09275918    -0.79100
C17         C  0.77648121  0.18502161  0.05615762     0.81700
N18         N  0.74790352  0.14823251  0.05412886    -0.80800
C19         C  0.56912244  0.71336130  0.33503458     0.79200
N20         N  0.56825000  0.73111486  0.30032930    -0.79100
C21         C  0.55784912  0.75786248  0.30154907     0.81600
N22         N  0.54786376  0.76626273  0.33748781    -0.79100
C23         C  0.54824190  0.74879474  0.37220348     0.81700
N24         N  0.55918139  0.72245281  0.37095464    -0.80800
C25         C  0.82197971  0.54748529  0.07687728     0.79200
N26         N  0.80671727  0.54885245  0.03977583    -0.79100
C27         C  0.77099574  0.54314625  0.03684095     0.81600
N28         N  0.75079236  0.53559597  0.07093584    -0.79100
C29         C  0.76506680  0.53345479  0.10779379     0.81700
N30         N  0.80085421  0.53965118  0.11068963    -0.80800
C31         C  0.14713171  0.38449254  0.36547045     0.79200
N32         N  0.16260323  0.38454025  0.40277225    -0.79100
C33         C  0.19757992  0.38850786  0.40576670     0.81600
N34         N  0.21707221  0.39320701  0.37148748    -0.79100
C35         C  0.20259286  0.39399796  0.33423311     0.81700
N36         N  0.16737476  0.38937091  0.33134156    -0.80800
O37         O  0.87747327  0.29428104  0.26296368    -0.81900
O38         O  0.95491398  0.41057810  0.40350725    -0.66600
O39         O  0.90457138  0.31720444  0.34330138    -1.13200
C40         C  0.79591588  0.32770371  0.36427783     1.05000
O41         O  0.91149630  0.38938609  0.45030861    -0.79800
O42         O  0.85058449  0.32003756  0.44243947    -0.67400
Ni43       Ni  0.92433140  0.31261560  0.29278478     1.34900
C44         C  0.84046781  0.28777622  0.42654661     0.83700
O45         O  0.97890292  0.36572417  0.37334445    -0.80400
O46         O  0.97346559  0.33078768  0.31761643    -0.90600
C47         C  0.94387935  0.41380766  0.43815846     0.83300
O48         O  0.93938094  0.36119213  0.27130082    -0.68800
O49         O  0.81361025  0.34782790  0.39590558    -0.88100
C50         C  0.94761954  0.39249747  0.28823196     0.84100
C51         C  0.99231670  0.35177530  0.34829132     1.05700
H52         H  0.88426141  0.38074125  0.35335352     0.37500
O53         O  0.88305204  0.36148671  0.37109059    -1.10800
O54         O  0.84064988  0.28199161  0.38833690    -0.67400
Ni55       Ni  0.85649864  0.31445998  0.34140287     1.26300
O56         O  0.94535115  0.39625950  0.32629296    -0.67700
O57         O  0.80957303  0.31383801  0.33974200    -0.80000
C58         C  0.84367241  0.27140025  0.27219080     0.83500
O59         O  0.83278320  0.26920810  0.30832390    -0.67100
Ni60       Ni  0.86349432  0.36780045  0.42074612     1.27400
Ni61       Ni  0.93115236  0.36430004  0.37276938     1.26100
H62         H  0.90331378  0.29776276  0.36066160     0.38000
O63         O  0.10008236  0.64723227  0.02365981    -0.81900
O64         O  0.01277332  0.52926859  0.15628734    -0.66600
O65         O  0.06689345  0.62207315  0.09964518    -1.13200
C66         C  0.17290028  0.60703396  0.13100193     1.05000
O67         O  0.05671194  0.54857807  0.20532931    -0.79800
O68         O  0.12206068  0.61397808  0.20382675    -0.67400
Ni69       Ni  0.05043579  0.62443402  0.04537327     1.34900
C70         C  0.12955721  0.64658575  0.19261297     0.83700
O71         O  0.99183501  0.57611596  0.12260896    -0.80400
O72         O  0.99880073  0.60204926  0.06111861    -0.90600
C73         C  0.02406155  0.52478649  0.19090454     0.83300
O74         O  0.04183767  0.57678813  0.02512343    -0.68800
O75         O  0.15243955  0.58198571  0.15620791    -0.88100
C76         C  0.02639313  0.54519344  0.04242929     0.84100
C77         C  0.97879370  0.58497164  0.09144948     1.05700
H78         H  0.08448518  0.55803722  0.10941580     0.37500
O79         O  0.08595580  0.57652659  0.12907275    -1.10800
O80         O  0.12658050  0.65433851  0.15554379    -0.67400
Ni81       Ni  0.11480074  0.62479994  0.10483307     1.26300
O82         O  0.02261479  0.54222513  0.08054940    -0.67700
O83         O  0.16197134  0.62587522  0.10989754    -0.80000
C84         C  0.13260331  0.67078125  0.03863173     0.83500
O85         O  0.14072780  0.67148276  0.07632522    -0.67100
Ni86       Ni  0.10373010  0.56589696  0.17839578     1.27400
Ni87       Ni  0.03852571  0.57547664  0.12726720     1.26100
H88         H  0.06733884  0.64227410  0.11580320     0.38000
O89         O  0.41345488  0.07183864  0.24891563    -0.81900
O90         O  0.45823643  0.00441876  0.39195543    -0.66600
O91         O  0.41404718  0.05169969  0.33047794    -1.13200
C92         C  0.53263888  0.16211296  0.35293095     1.05000
O93         O  0.48531748  0.05035240  0.43897285    -0.79800
O94         O  0.46768623  0.10518973  0.42921735    -0.67400
Ni95       Ni  0.38614157  0.02776737  0.28098954     1.34900
C96         C  0.44771116  0.11699358  0.41174697     0.83700
O97         O  0.38854680  0.97950555  0.36266548    -0.80400
O98         O  0.35549913  0.98109174  0.30805372    -0.90600
C99         C  0.47467792  0.01679723  0.42639934     0.83300
O100        O  0.41769331  0.00996266  0.26015780    -0.68800
O101        O  0.53301255  0.14714711  0.38667257    -0.88100
C102        C  0.44206987  0.00356883  0.27689286     0.84100
C103        C  0.35915188  0.96464103  0.33916242     1.05700
H104        H  0.49872267  0.07204775  0.34237804     0.37500
O105        O  0.48091376  0.07457554  0.35898491    -1.10800
O106        O  0.44522711  0.11906164  0.37314249    -0.67400
Ni107      Ni  0.45997664  0.09927519  0.32731812     1.26300
O108        O  0.45060358  0.00916180  0.31474200    -0.67700
O109        O  0.50696555  0.14574359  0.32520872    -0.80000
C110        C  0.42583011  0.10670905  0.25655955     0.83500
O111        O  0.43795116  0.12097076  0.29210771    -0.67100
Ni112      Ni  0.50662076  0.09741399  0.40978193     1.27400
Ni113      Ni  0.43520635  0.02682008  0.36093022     1.26100
H114        H  0.39700974  0.05470202  0.34790513     0.38000
O115        O  0.54216885  0.85652151  0.00326910    -0.81900
O116        O  0.51377438  0.94020075  0.14150539    -0.66600
O117        O  0.55280485  0.88705675  0.08229458    -1.13200
C118        C  0.43444433  0.77936416  0.11243481     1.05000
O119        O  0.49695330  0.89880618  0.19027797    -0.79800
O120        O  0.50063129  0.83555607  0.18490112    -0.67400
Ni121      Ni  0.57467506  0.90423952  0.03080885     1.34900
C122        C  0.52254849  0.82566273  0.16954416     0.83700
O123        O  0.58127479  0.96294660  0.10768551    -0.80400
O124        O  0.60901744  0.95341716  0.05405939    -0.90600
C125        C  0.50111667  0.92959990  0.17674072     0.83300
O126        O  0.54288614  0.92219370  0.00973079    -0.68800
O127        O  0.43352123  0.79960708  0.14169352    -0.88100
C128        C  0.52078889  0.93125522  0.02622655     0.84100
C129        C  0.60835234  0.97425334  0.08288664     1.05700
H130        H  0.47010864  0.86716565  0.09498539     0.37500
O131        O  0.48914360  0.86676044  0.11255002    -1.10800
O132        O  0.52772709  0.82562919  0.13138311    -0.67400
Ni133      Ni  0.50752517  0.83859141  0.08396566     1.26300
O134        O  0.51442577  0.92795232  0.06405167    -0.67700
O135        O  0.46102751  0.79093548  0.08715332    -0.80000
C136        C  0.53460653  0.82374316  0.01407388     0.83500
O137        O  0.52726282  0.81376603  0.05083028    -0.67100
Ni138      Ni  0.46640163  0.84994070  0.16371627     1.27400
Ni139      Ni  0.53454634  0.91519485  0.11087987     1.26100
H140        H  0.57202848  0.88668291  0.09956484     0.38000
C141        C  0.62299589  0.26812987  0.34015725     0.79200
N142        N  0.65826971  0.27292452  0.34379346    -0.79100
C143        C  0.68902191  0.30829116  0.34352930     0.81600
N144        N  0.68446828  0.33880077  0.34005534    -0.79100
C145        C  0.64930202  0.33405842  0.33644632     0.81700
N146        N  0.61856240  0.29874861  0.33677133    -0.80800
C147        C  0.34612229  0.67087184  0.11438153     0.79200
N148        N  0.35239103  0.64134018  0.11704562    -0.79100
C149        C  0.32305695  0.60578080  0.12218150     0.81600
N150        N  0.28744247  0.59966165  0.12440808    -0.79100
C151        C  0.28106163  0.62905831  0.12180213     0.81700
N152        N  0.31039019  0.66470643  0.11681358    -0.80800
O153        O  0.40586877  0.47590425  0.01504421    -0.81900
O154        O  0.29067750  0.42200498  0.16057697    -0.66600
O155        O  0.37901463  0.46806738  0.09575808    -1.13200
C156        C  0.36920450  0.34729173  0.10634767     1.05000
O157        O  0.32012421  0.40248103  0.20211457    -0.79800
O158        O  0.38623263  0.40738556  0.18853275    -0.67400
Ni159      Ni  0.38168922  0.49623835  0.04848095     1.34900
C160        C  0.41613621  0.43127410  0.17155745     0.83700
O161        O  0.33300241  0.49174205  0.13326291    -0.80400
O162        O  0.35969569  0.52183014  0.07601549    -0.90600
C163        C  0.29430879  0.41047639  0.19525926     0.83300
O164        O  0.33412004  0.45879976  0.02607608    -0.68800
O165        O  0.35107288  0.34433064  0.13846124    -0.88100
C166        C  0.30290357  0.43623021  0.04187477     0.84100
C167        C  0.34301565  0.51892436  0.10905612     1.05700
H168        H  0.31564865  0.38297922  0.10253292     0.37500
O169        O  0.33653091  0.40079176  0.12002791    -1.10800
O170        O  0.41678709  0.43852008  0.13399695    -0.67400
Ni171      Ni  0.38085775  0.42238415  0.08885518     1.26300
O172        O  0.29882745  0.43073249  0.08006538    -0.67700
O173        O  0.38149753  0.37572569  0.08318471    -0.80000
C174        C  0.42723697  0.46263327  0.02404251     0.83500
O175        O  0.42414611  0.44537583  0.05673504    -0.67100
Ni176      Ni  0.33575021  0.37468325  0.16812113     1.27400
Ni177      Ni  0.33392385  0.44581191  0.12676064     1.26100
H178        H  0.39960475  0.48537619  0.11388708     0.38000
O179        O  0.64932380  0.52702014  0.23794745    -0.81900
O180        O  0.55095970  0.50282942  0.38333469    -0.66600
O181        O  0.63726871  0.53825340  0.31856403    -1.13200
C182        C  0.63176946  0.42331079  0.34328010     1.05000
O183        O  0.56276074  0.46701355  0.42491210    -0.79800
O184        O  0.63752826  0.49411953  0.41791560    -0.67400
Ni185      Ni  0.63836635  0.56076670  0.26767701     1.29100
C186        C  0.66952452  0.51009249  0.40166081     0.83700
O187        O  0.59522806  0.56896204  0.34957786    -0.80400
O188        O  0.62698929  0.59608765  0.29316100    -0.90600
C189        C  0.54473723  0.48376745  0.41529649     0.83300
O190        O  0.58695723  0.53001693  0.24942063    -0.68800
O191        O  0.62143255  0.42761529  0.37812275    -0.88100
C192        C  0.55695282  0.50808596  0.26747709     0.84100
C193        C  0.60866704  0.59583821  0.32416349     1.05700
H194        H  0.57176220  0.45496117  0.33151404     0.37500
O195        O  0.59314550  0.47342544  0.34797933    -1.10800
O196        O  0.67339184  0.50812862  0.36327716    -0.67400
Ni197      Ni  0.63752660  0.49180528  0.31644136     1.26300
O198        O  0.55669598  0.50234407  0.30541673    -0.67700
O199        O  0.63538046  0.44425945  0.31362261    -0.80000
C200        C  0.67524455  0.51949347  0.24606749     0.83500
O201        O  0.68016411  0.51146470  0.28204411    -0.67100
Ni202      Ni  0.59313508  0.45025671  0.39820061     1.27400
Ni203      Ni  0.59354236  0.52090386  0.34994498     1.26100
H204        H  0.65878672  0.55665697  0.33492173     0.38000
C205        C  0.48628039  0.47553066  0.17789954    -0.14400
C206        C  0.45196023  0.45140542  0.19640343     0.07800
C207        C  0.45240188  0.44642461  0.23871043    -0.14400
C208        C  0.48635570  0.46482581  0.26182882    -0.14400
C209        C  0.52073603  0.48859847  0.24319413     0.07800
C210        C  0.52017941  0.49384739  0.20096263    -0.14400
H211        H  0.48706957  0.48009184  0.14542362     0.11800
H212        H  0.42649265  0.42821137  0.25402265     0.11800
H213        H  0.48564856  0.46032481  0.29431183     0.11800
H214        H  0.54603168  0.51205367  0.18555614     0.11800
C215        C  0.46287503  0.49008105  0.45826335    -0.14400
C216        C  0.45755870  0.47088091  0.49502121     0.07800
C217        C  0.47877253  0.45062887  0.00440066    -0.14400
C218        C  0.51027084  0.46187669  0.47993381    -0.14400
C219        C  0.51530672  0.48046033  0.44287985     0.07800
C220        C  0.49152001  0.49483193  0.43240445    -0.14400
H221        H  0.44472980  0.50112439  0.44929966     0.11800
H222        H  0.47476677  0.43463930  0.03176722     0.11800
H223        H  0.52821554  0.45066136  0.48912022     0.11800
H224        H  0.49473313  0.50932516  0.40406474     0.11800
C225        C  0.33497046  0.54828369  0.11880300    -0.14300
C226        C  0.32932272  0.57433134  0.12246692    -0.15900
C227        C  0.63968385  0.39318039  0.33771670    -0.14300
C228        C  0.64457294  0.36651073  0.33562990    -0.15900
C229        C  0.40366833  0.74082651  0.10887313    -0.14300
C230        C  0.37741855  0.70873877  0.11001509    -0.15900
C231        C  0.59034965  0.23090841  0.34239225    -0.14300
C232        C  0.56337876  0.19965012  0.34611109    -0.15900
C233        C  0.48568202  0.99718605  0.49514114    -0.14400
C234        C  0.48161554  0.99153237  0.45264390     0.07800
C235        C  0.48640641  0.96278784  0.43506273    -0.14400
C236        C  0.50214341  0.94476078  0.95785042    -0.14400
C237        C  0.50336483  0.94842263  0.00055272     0.07800
C238        C  0.49141393  0.97193896  0.01833849    -0.14400
H239        H  0.48196715  0.01901020  0.50949928     0.11800
H240        H  0.48355704  0.95788751  0.40235909     0.11800
H241        H  0.51119552  0.92693192  0.94321815     0.11800
H242        H  0.49222542  0.97554233  0.05113457     0.11800
C243        C  0.47608875  0.96737556  0.26930214    -0.14400
C244        C  0.46069571  0.98794722  0.25140329     0.07800
C245        C  0.46172549  0.99181928  0.20885066    -0.14400
C246        C  0.47691972  0.97463841  0.18467029    -0.14400
C247        C  0.49059572  0.95256958  0.20248761     0.07800
C248        C  0.49045453  0.94951725  0.24507460    -0.14400
H249        H  0.47568546  0.96381980  0.30196103     0.11800
H250        H  0.45026660  0.00766933  0.19419671     0.11800
H251        H  0.47638105  0.97717132  0.15189330     0.11800
H252        H  0.50079848  0.93265508  0.25961473     0.11800
C253        C  0.21096685  0.61504185  0.12666923    -0.14300
C254        C  0.24316788  0.62211068  0.12412472    -0.15900
C255        C  0.75809398  0.32001219  0.35592209    -0.14300
C256        C  0.72635076  0.31386853  0.34953769    -0.15900
C257        C  0.99673738  0.48045737  0.44919392    -0.14400
C258        C  0.96895791  0.44624608  0.46529838     0.07800
C259        C  0.96303816  0.44425505  0.50729780    -0.14400
C260        C  0.98165095  0.47602694  0.03378550    -0.14400
C261        C  0.00964580  0.51003380  0.01741754     0.07800
C262        C  0.01646519  0.51279676  0.47436076    -0.14400
H263        H  0.00179828  0.48270761  0.41684602     0.11800
H264        H  0.94201530  0.41813019  0.52051883     0.11800
H265        H  0.97417838  0.47474830  0.06538241     0.11800
H266        H  0.03644227  0.53926996  0.46089425     0.11800
C267        C  0.98371724  0.46270790  0.28159167    -0.14400
C268        C  0.96225818  0.42661200  0.26300496     0.07800
C269        C  0.95771596  0.42364633  0.22024516    -0.14400
C270        C  0.97579153  0.45604176  0.19660916    -0.14400
C271        C  0.99932679  0.49172695  0.21534576     0.07800
C272        C  0.00240343  0.49481462  0.25801130    -0.14400
H273        H  0.98773140  0.46601481  0.31440852     0.11800
H274        H  0.94112377  0.39623043  0.20505867     0.11800
H275        H  0.97313077  0.45293974  0.16370101     0.11800
H276        H  0.02024491  0.52203658  0.27315157     0.11800
C277        C  0.08931951  0.38096013  0.39545964    -0.14400
C278        C  0.10792202  0.37743945  0.36162370     0.07800
C279        C  0.08828999  0.36596792  0.32380545    -0.14400
C280        C  0.05086986  0.35753158  0.31994879    -0.14400
C281        C  0.03208256  0.36081748  0.35365217     0.07800
C282        C  0.05183686  0.37308189  0.39141766    -0.14400
H283        H  0.10374463  0.38988037  0.42500841     0.11800
H284        H  0.10161461  0.36283526  0.29713619     0.11800
H285        H  0.03668678  0.34863337  0.29026764     0.11800
H286        H  0.03816846  0.37603251  0.41787749     0.11800
C287        C  0.23947978  0.42200274  0.01420879    -0.14400
C288        C  0.26648008  0.40981792  0.51328362     0.07800
C289        C  0.26925085  0.38974979  0.47999780    -0.14400
C290        C  0.24423917  0.37962018  0.44654025    -0.14400
C291        C  0.21606271  0.38962229  0.44548039     0.07800
C292        C  0.21047235  0.40583375  0.48068593    -0.14400
H293        H  0.23636516  0.43694601  0.03987237     0.11800
H294        H  0.29262398  0.38449479  0.47854619     0.11800
H295        H  0.24871066  0.36636431  0.42019857     0.11800
H296        H  0.18885742  0.41367941  0.48071533     0.11800
C297        C  0.21447277  0.40479370  0.25854368    -0.14400
C298        C  0.22546420  0.39928955  0.29773092     0.07800
C299        C  0.25939475  0.39883960  0.30239194    -0.14400
C300        C  0.28137591  0.40300753  0.26913181    -0.14400
C301        C  0.27045963  0.40797350  0.22983938     0.07800
C302        C  0.23691139  0.40927115  0.22484067    -0.14400
H303        H  0.18860169  0.40553956  0.25393644     0.11800
H304        H  0.26905583  0.39481756  0.33189416     0.11800
H305        H  0.30712405  0.40214109  0.27442384     0.11800
H306        H  0.22776643  0.41310147  0.19495703     0.11800
C307        C  0.87768496  0.55442759  0.11896778    -0.14400
C308        C  0.86168409  0.55565526  0.08086031     0.07800
C309        C  0.88437009  0.56575842  0.04669445    -0.14400
C310        C  0.92210732  0.57508622  0.05052243    -0.14400
C311        C  0.93837430  0.57447952  0.08861274     0.07800
C312        C  0.91557386  0.56355653  0.12276009    -0.14400
H313        H  0.86103449  0.54666895  0.14601042     0.11800
H314        H  0.87313227  0.56685840  0.01688368     0.11800
H315        H  0.93857664  0.58275336  0.02333590     0.11800
H316        H  0.92712287  0.56257692  0.15243180     0.11800
C317        C  0.75472071  0.52443824  0.18369702    -0.14400
C318        C  0.74159589  0.52583133  0.14403003     0.07800
C319        C  0.70545020  0.52132465  0.13877791    -0.14400
C320        C  0.68386867  0.51777919  0.17205446    -0.14400
C321        C  0.69751345  0.51846911  0.21184280     0.07800
C322        C  0.73269899  0.52065554  0.21748535    -0.14400
H323        H  0.78227725  0.52732072  0.18868292     0.11800
H324        H  0.69393247  0.52159819  0.10884247     0.11800
H325        H  0.65658525  0.51540860  0.16644216     0.11800
H326        H  0.74372632  0.52092530  0.24786365     0.11800
C327        C  0.72400698  0.55308698  0.99773237    -0.14400
C328        C  0.75186003  0.54246791  0.49789423     0.07800
C329        C  0.75726889  0.52835404  0.46101343    -0.14400
C330        C  0.73272562  0.52148397  0.42718141    -0.14400
C331        C  0.70275765  0.52881290  0.43003079     0.07800
C332        C  0.70010784  0.54655501  0.46555704    -0.14400
H333        H  0.71940941  0.56517012  0.02499485     0.11800
H334        H  0.77817722  0.51962790  0.45943338     0.11800
H335        H  0.73498866  0.50726816  0.40031118     0.11800
H336        H  0.67729942  0.55249852  0.46854907     0.11800
C337        C  0.59960905  0.68147530  0.29978310    -0.14400
C338        C  0.58095187  0.68447502  0.33366892     0.07800
C339        C  0.57339614  0.65935387  0.36581944    -0.14400
C340        C  0.58326268  0.63114700  0.36349915    -0.14400
C341        C  0.60134398  0.62776763  0.32920064     0.07800
C342        C  0.60984849  0.65369118  0.29767874    -0.14400
H343        H  0.60616227  0.70049933  0.27463047     0.11800
H344        H  0.55905012  0.66089685  0.39239686     0.11800
H345        H  0.57614941  0.61161376  0.38823070     0.11800
H346        H  0.62358027  0.65195512  0.27065029     0.11800
C347        C  0.51215736  0.79527284  0.44336954    -0.14400
C348        C  0.52943504  0.79530848  0.48076285     0.07800
C349        C  0.54884012  0.77518816  0.48375526    -0.14400
C350        C  0.55322201  0.75770192  0.44884521    -0.14400
C351        C  0.53823612  0.76027128  0.41075077     0.07800
C352        C  0.51634952  0.77786819  0.40887161    -0.14400
H353        H  0.49688693  0.81045085  0.44038228     0.11800
H354        H  0.56274576  0.77524615  0.51224188     0.11800
H355        H  0.57022916  0.74431566  0.45115808     0.11800
H356        H  0.50384949  0.77977443  0.38019558     0.11800
C357        C  0.56065177  0.81402818  0.26955229    -0.14400
C358        C  0.55672654  0.77803478  0.26470804     0.07800
C359        C  0.54812082  0.76083176  0.22556097    -0.14400
C360        C  0.54036213  0.77804355  0.19271616    -0.14400
C361        C  0.54131151  0.81262869  0.19877990     0.07800
C362        C  0.55307191  0.83107242  0.23705163    -0.14400
H363        H  0.56787159  0.82834243  0.29911877     0.11800
H364        H  0.54489988  0.73307472  0.22098205     0.11800
H365        H  0.53080854  0.76301849  0.16360446     0.11800
H366        H  0.55408491  0.85776469  0.24249698     0.11800
C367        C  0.67333552  0.07628614  0.11933170    -0.14400
C368        C  0.69937382  0.09049517  0.08783424     0.07800
C369        C  0.69604722  0.06590457  0.05595126    -0.14400
C370        C  0.66716552  0.02807164  0.05524562    -0.14400
C371        C  0.64046349  0.01389190  0.08612706     0.07800
C372        C  0.64401615  0.03846193  0.11834332    -0.14400
H373        H  0.67522610  0.09458521  0.14446179     0.11800
H374        H  0.71592025  0.07583656  0.03160157     0.11800
H375        H  0.66543451  0.01007741  0.02989073     0.11800
H376        H  0.62402404  0.02858263  0.14257782     0.11800
C377        C  0.77458886  0.18981250  0.20396578    -0.14400
C378        C  0.78213535  0.20799567  0.16629172     0.07800
C379        C  0.80493445  0.24750828  0.16564439    -0.14400
C380        C  0.82227385  0.26812440  0.20122388    -0.14400
C381        C  0.81733569  0.24982085  0.23832441     0.07800
C382        C  0.79218133  0.21073906  0.23999928    -0.14400
H383        H  0.75690554  0.15935596  0.20527817     0.11800
H384        H  0.81072843  0.26250759  0.13731948     0.11800
H385        H  0.84129320  0.29838313  0.19940660     0.11800
H386        H  0.78823935  0.19617656  0.26841133     0.11800
C387        C  0.77610502  0.19674308  0.48014679    -0.14400
C388        C  0.79633284  0.20657213  0.01969366     0.07800
C389        C  0.83075461  0.23674260  0.52376928    -0.14400
C390        C  0.84676309  0.26218081  0.49241224    -0.14400
C391        C  0.82728757  0.25601836  0.45489582     0.07800
C392        C  0.79247603  0.22233300  0.44832121    -0.14400
H393        H  0.74815835  0.17228240  0.47537321     0.11800
H394        H  0.84451517  0.24934385  0.05562579     0.11800
H395        H  0.87368475  0.28782044  0.49818276     0.11800
H396        H  0.77675411  0.21720799  0.41970852     0.11800
C397        C  0.30041499  0.86854034  0.38705556    -0.14400
C398        C  0.27073343  0.84982781  0.35783503     0.07800
C399        C  0.26930377  0.86983162  0.32402823    -0.14400
C400        C  0.29731745  0.90738718  0.31892099    -0.14400
C401        C  0.32786675  0.92586343  0.34721236     0.07800
C402        C  0.32887296  0.90614093  0.38166531    -0.14400
H403        H  0.30226720  0.85377055  0.41341116     0.11800
H404        H  0.24658952  0.85633118  0.30122370     0.11800
H405        H  0.29543573  0.92161781  0.29209787     0.11800
H406        H  0.35194461  0.91950514  0.40407743     0.11800
C407        C  0.18313279  0.69678317  0.44124270    -0.14400
C408        C  0.19802151  0.73611377  0.44081250     0.07800
C409        C  0.19725453  0.75493820  0.47659870    -0.14400
C410        C  0.17856371  0.73408080  0.51084411    -0.14400
C411        C  0.16081051  0.69438903  0.50947587     0.07800
C412        C  0.16464794  0.67620285  0.47507847    -0.14400
H413        H  0.18371225  0.68151644  0.41436907     0.11800
H414        H  0.20841832  0.78522874  0.47700661     0.11800
H415        H  0.17498065  0.74870930  0.03689586     0.11800
H416        H  0.15105913  0.64559933  0.47336592     0.11800
C417        C  0.14893468  0.68894422  0.29864180    -0.14400
C418        C  0.17738918  0.72661208  0.29320350     0.07800
C419        C  0.18691459  0.73938077  0.25313722    -0.14400
C420        C  0.16973375  0.71418288  0.21949501    -0.14400
C421        C  0.14290407  0.67596800  0.22559741     0.07800
C422        C  0.13205216  0.66412704  0.26548619    -0.14400
H423        H  0.14027108  0.67801803  0.32879593     0.11800
H424        H  0.20856101  0.76831714  0.24787698     0.11800
H425        H  0.17880905  0.72402074  0.18909334     0.11800
H426        H  0.11121099  0.63498523  0.27130415     0.11800
C427        C  0.38053531  0.26211791  0.12167324    -0.14400
C428        C  0.39673328  0.25968791  0.08543556     0.07800
C429        C  0.40233413  0.28542528  0.05450740    -0.14400
C430        C  0.39298279  0.31384291  0.06055998    -0.14400
C431        C  0.37725143  0.31638786  0.09731926     0.07800
C432        C  0.37074580  0.28976841  0.12740959    -0.14400
H433        H  0.37528874  0.24248184  0.14594010     0.11800
H434        H  0.41468712  0.28412617  0.02619305     0.11800
H435        H  0.39834933  0.33392608  0.03676568     0.11800
H436        H  0.35878326  0.29069183  0.15614752     0.11800
C437        C  0.42778134  0.13607965  0.14783914    -0.14400
C438        C  0.42440914  0.16847096  0.15149655     0.07800
C439        C  0.42395205  0.18233754  0.19088735    -0.14400
C440        C  0.42579499  0.16341057  0.22570892    -0.14400
C441        C  0.42769272  0.13015898  0.22152393     0.07800
C442        C  0.42923684  0.11721621  0.18220020    -0.14400
H443        H  0.42847962  0.12457269  0.11824333     0.11800
H444        H  0.42151768  0.20735039  0.19477758     0.11800
H445        H  0.42448457  0.17397872  0.25562832     0.11800
H446        H  0.43115275  0.09193877  0.17781590     0.11800
C447        C  0.40261986  0.12897911  0.00196573    -0.14400
C448        C  0.41581536  0.16806737  0.00292494     0.07800
C449        C  0.43416564  0.18939371  0.96888200    -0.14400
C450        C  0.43195131  0.16592167  0.43525782    -0.14400
C451        C  0.42775880  0.12974112  0.43870476     0.07800
C452        C  0.41078500  0.11217601  0.96968979    -0.14400
H453        H  0.38798842  0.11176005  0.02757177     0.11800
H454        H  0.44482303  0.21959765  0.96900765     0.11800
H455        H  0.44562644  0.18296332  0.40922652     0.11800
H456        H  0.40269918  0.08259109  0.97125111     0.11800
C457        C  0.40173792  0.22646914  0.58024196     0.79200
N458        N  0.40882123  0.21294534  0.61524037    -0.79100
C459        C  0.41567424  0.18378020  0.61387610     0.81600
N460        N  0.41475546  0.16790704  0.57724706    -0.79100
C461        C  0.40782768  0.18066089  0.54207207     0.81700
N462        N  0.40166873  0.21047915  0.54342814    -0.80800
C463        C  0.23900504  0.80902928  0.85935026     0.79200
N464        N  0.23102280  0.79267406  0.89654490    -0.79100
C465        C  0.20392269  0.75567607  0.89953920     0.81600
N466        N  0.18495838  0.73552256  0.86530996    -0.79100
C467        C  0.19238080  0.75149048  0.82820362     0.81700
N468        N  0.21960984  0.78828387  0.82540247    -0.80800
C469        C  0.72983364  0.12866564  0.58871959     0.79200
N470        N  0.74145238  0.14804547  0.62511043    -0.79100
C471        C  0.76948351  0.18477692  0.62686169     0.81600
N472        N  0.78615011  0.20180601  0.59207652    -0.79100
C473        C  0.77530607  0.18327221  0.55550798     0.81700
N474        N  0.74673867  0.14652255  0.55376128    -0.80800
C475        C  0.56595891  0.71019357  0.83582194     0.79200
N476        N  0.56557262  0.72802680  0.80092204    -0.79100
C477        C  0.55754709  0.75650384  0.80200813     0.81600
N478        N  0.54934531  0.76652557  0.83813210    -0.79100
C479        C  0.54915997  0.74898548  0.87305033     0.81700
N480        N  0.55777806  0.72091396  0.87187211    -0.80800
C481        C  0.82013857  0.54402611  0.57657069     0.79200
N482        N  0.80525862  0.54643606  0.53977928    -0.79100
C483        C  0.76944627  0.54020908  0.53685195     0.81600
N484        N  0.74864228  0.53110461  0.57060889    -0.79100
C485        C  0.76258832  0.52797111  0.60723442     0.81700
N486        N  0.79860256  0.53476554  0.61018332    -0.80800
C487        C  0.14862148  0.38481865  0.86525900     0.79200
N488        N  0.16527557  0.38720437  0.90257957    -0.79100
C489        C  0.20124174  0.39364247  0.90534081     0.81600
N490        N  0.22041306  0.39828931  0.87086590    -0.79100
C491        C  0.20468732  0.39659478  0.83364551     0.81700
N492        N  0.16862356  0.38966961  0.83094949    -0.80800
O493        O  0.87857892  0.29482039  0.76170506    -0.81900
O494        O  0.95572230  0.40869999  0.90644302    -0.66600
O495        O  0.90592605  0.31770644  0.84224125    -1.13200
C496        C  0.79663578  0.32767525  0.86246126     1.05000
O497        O  0.91039500  0.38955381  0.95104419    -0.79800
O498        O  0.85006345  0.32044448  0.94137433    -0.67400
Ni499      Ni  0.92621828  0.31621494  0.79085502     1.34900
C500        C  0.84145100  0.28837985  0.92604310     0.83700
O501        O  0.97921395  0.36372897  0.87551673    -0.80400
O502        O  0.97639334  0.33713057  0.81449931    -0.90600
C503        C  0.94367440  0.41263008  0.94012742     0.83300
O504        O  0.93631180  0.36422461  0.77182185    -0.68800
O505        O  0.81404850  0.34840548  0.89375679    -0.88100
C506        C  0.94731069  0.39536912  0.79067436     0.84100
C507        C  0.99395446  0.35370079  0.84776491     1.05700
H508        H  0.88619718  0.38116815  0.85298586     0.37500
O509        O  0.88428058  0.36173896  0.87091307    -1.10800
O510        O  0.84252295  0.28240793  0.88797037    -0.67400
Ni511      Ni  0.85781520  0.31475369  0.84076432     1.26300
O512        O  0.94880994  0.39816335  0.82928969    -0.67700
O513        O  0.81062233  0.31353418  0.83884623    -0.80000
C514        C  0.84490245  0.27170187  0.77123916     0.83500
O515        O  0.83422972  0.26956586  0.80748743    -0.67100
Ni516      Ni  0.86340346  0.36817928  0.91971368     1.27400
Ni517      Ni  0.93210051  0.36365095  0.87385730     1.26100
H518        H  0.90462432  0.29747615  0.85823836     0.38000
O519        O  0.09899404  0.64815965  0.52311519    -0.81900
O520        O  0.01046443  0.53041698  0.65708733    -0.66600
O521        O  0.06546945  0.62250765  0.59903826    -1.13200
C522        C  0.17080386  0.60736102  0.63325984     1.05000
O523        O  0.05397842  0.55102392  0.70661861    -0.79800
O524        O  0.11863993  0.61588599  0.70451002    -0.67400
Ni525      Ni  0.04933004  0.62554673  0.54491077     1.34900
C526        C  0.12603543  0.64804464  0.69197890     0.83700
O527        O  0.99056442  0.57722971  0.62200310    -0.80400
O528        O  0.99781738  0.60355857  0.56072918    -0.90600
C529        C  0.02124331  0.52713728  0.69258416     0.83300
O530        O  0.04033929  0.57780473  0.52469941    -0.68800
O531        O  0.15020885  0.58323164  0.65919594    -0.88100
C532        C  0.02514405  0.54608519  0.54179765     0.84100
C533        C  0.97777699  0.58638790  0.59099167     1.05700
H534        H  0.08241971  0.55791085  0.61087923     0.37500
O535        O  0.08388119  0.57688020  0.62983312    -1.10800
O536        O  0.12429550  0.65509768  0.65448966    -0.67400
Ni537      Ni  0.11303519  0.62474462  0.60478888     1.26300
O538        O  0.02114924  0.54279582  0.58001360    -0.67700
O539        O  0.15999397  0.62553116  0.61082967    -0.80000
C540        C  0.13168893  0.67082521  0.53835166     0.83500
O541        O  0.13949936  0.67109812  0.57601434    -0.67100
Ni542      Ni  0.10115214  0.56752512  0.68035908     1.27400
Ni543      Ni  0.03673915  0.57616269  0.62704390     1.26100
H544        H  0.06603402  0.64279754  0.61513795     0.38000
O545        O  0.41311476  0.07131945  0.74800260    -0.81900
O546        O  0.45724060  0.00241667  0.89014597    -0.66600
O547        O  0.41334118  0.05031032  0.82917043    -1.13200
C548        C  0.53369516  0.15917935  0.85206196     1.05000
O549        O  0.48040760  0.04729758  0.93820398    -0.79800
O550        O  0.46955345  0.10676447  0.92840154    -0.67400
Ni551      Ni  0.38574008  0.02682395  0.77937919     1.34900
C552        C  0.44963691  0.11849262  0.91067817     0.83700
O553        O  0.38779266  0.97750469  0.86016675    -0.80400
O554        O  0.35511330  0.97966594  0.80555127    -0.90600
C555        C  0.47223952  0.01451509  0.92521142     0.83300
O556        O  0.41740921  0.00930143  0.75834308    -0.68800
O557        O  0.53466647  0.14349065  0.88512129    -0.88100
C558        C  0.44140233  0.00242214  0.77517817     0.84100
C559        C  0.35872546  0.96277081  0.83625284     1.05700
H560        H  0.49763491  0.07007063  0.84151352     0.37500
O561        O  0.47980653  0.07256677  0.85812094    -1.10800
O562        O  0.44521164  0.11809141  0.87207002    -0.67400
Ni563      Ni  0.45965166  0.09782949  0.82653815     1.26300
O564        O  0.44981630  0.00779200  0.81303495    -0.67700
O565        O  0.50702273  0.14396455  0.82515363    -0.80000
C566        C  0.42602470  0.10626131  0.75586976     0.83500
O567        O  0.43845254  0.12031930  0.79139345    -0.67100
Ni568      Ni  0.50550129  0.09441628  0.90904556     1.27400
Ni569      Ni  0.43420520  0.02492597  0.85932408     1.26100
H570        H  0.39632838  0.05333039  0.84661984     0.38000
O571        O  0.53936673  0.85446888  0.50256150    -0.81900
O572        O  0.51346469  0.93861156  0.64152790    -0.66600
O573        O  0.55159093  0.88519552  0.58162472    -1.13200
C574        C  0.43318352  0.77785903  0.61242412     1.05000
O575        O  0.49659522  0.89720392  0.69024898    -0.79800
O576        O  0.50033034  0.83400080  0.68479940    -0.67400
Ni577      Ni  0.57252265  0.90227196  0.52968671     1.34900
C578        C  0.52189693  0.82378130  0.66916082     0.83700
O579        O  0.58072214  0.96102576  0.60734547    -0.80400
O580        O  0.60731758  0.95161191  0.55252811    -0.90600
C581        C  0.50049015  0.92782962  0.67656378     0.83300
O582        O  0.54057953  0.92028593  0.50933715    -0.68800
O583        O  0.43282472  0.79806874  0.64202916    -0.88100
C584        C  0.51926059  0.92994964  0.52654369     0.84100
C585        C  0.60725473  0.97238245  0.58183660     1.05700
H586        H  0.46916253  0.86572600  0.59523192     0.37500
O587        O  0.48825060  0.86517491  0.61257367    -1.10800
O588        O  0.52658460  0.82354924  0.63086035    -0.67400
Ni589      Ni  0.50619942  0.83683592  0.58363912     1.26300
O590        O  0.51354646  0.92677982  0.56447978    -0.67700
O591        O  0.45949838  0.78932719  0.58681388    -0.80000
C592        C  0.53216792  0.82178650  0.51329886     0.83500
O593        O  0.52550112  0.81193835  0.55014478    -0.67100
Ni594      Ni  0.46590628  0.84834844  0.66392693     1.27400
Ni595      Ni  0.53382578  0.91347129  0.61070875     1.26100
H596        H  0.57099749  0.88473190  0.59847728     0.38000
C597        C  0.62341068  0.26530779  0.83809434     0.79200
N598        N  0.65898455  0.27087895  0.84139156    -0.79100
C599        C  0.68924901  0.30649666  0.84050143     0.81600
N600        N  0.68390046  0.33650865  0.83673336    -0.79100
C601        C  0.64840949  0.33100499  0.83344576     0.81700
N602        N  0.61815880  0.29541584  0.83443952    -0.80800
C603        C  0.34388386  0.66995687  0.61546463     0.79200
N604        N  0.34965703  0.64003064  0.61659017    -0.79100
C605        C  0.32008402  0.60451148  0.62132967     0.81600
N606        N  0.28473303  0.59887001  0.62473708    -0.79100
C607        C  0.27881876  0.62863467  0.62376064     0.81700
N608        N  0.30838903  0.66423371  0.61908133    -0.80800
O609        O  0.40656304  0.47928841  0.51372549    -0.81900
O610        O  0.29047432  0.42318510  0.65942827    -0.66600
O611        O  0.37726417  0.46813155  0.59274949    -1.13200
C612        C  0.36633999  0.34626125  0.60243396     1.05000
O613        O  0.31892010  0.40166345  0.69966481    -0.79800
O614        O  0.38407893  0.40501108  0.68493344    -0.67400
Ni615      Ni  0.37580317  0.49344247  0.54458694     1.34900
C616        C  0.41404904  0.42961216  0.66860241     0.83700
O617        O  0.33426210  0.49302166  0.63281808    -0.80400
O618        O  0.34728747  0.51393082  0.56933983    -0.90600
C619        C  0.29397787  0.41096899  0.69364986     0.83300
O620        O  0.33144958  0.44992389  0.52370695    -0.68800
O621        O  0.34734715  0.34289094  0.63388152    -0.88100
C622        C  0.29995036  0.43126079  0.54068136     0.84100
C623        C  0.33766806  0.51599390  0.60538922     1.05700
H624        H  0.31351110  0.38341328  0.59937161     0.37500
O625        O  0.33453699  0.40070441  0.61704185    -1.10800
O626        O  0.41477516  0.43823278  0.63140502    -0.67400
Ni627      Ni  0.37894756  0.42220958  0.58588973     1.26300
O628        O  0.29653560  0.43181719  0.57921866    -0.67700
O629        O  0.37968627  0.37533077  0.58003332    -0.80000
C630        C  0.42705188  0.46492298  0.52245619     0.83500
O631        O  0.42216449  0.44525147  0.55369028    -0.67100
Ni632      Ni  0.33329381  0.37362875  0.66452228     1.27400
Ni633      Ni  0.33308043  0.44625434  0.62491774     1.26100
H634        H  0.39851407  0.48619355  0.60966819     0.38000
O635        O  0.64996461  0.52762010  0.73679247    -0.81900
O636        O  0.54726821  0.49648652  0.88188260    -0.66600
O637        O  0.63476883  0.53516584  0.81834060    -1.13200
C638        C  0.62955378  0.41947116  0.84105569     1.05000
O639        O  0.56302619  0.46501204  0.92542188    -0.79800
O640        O  0.63687430  0.48843971  0.91764775    -0.67400
Ni641      Ni  0.63572578  0.55837555  0.76783201     1.29100
C642        C  0.66864726  0.50623897  0.90107242     0.83700
O643        O  0.59069317  0.56382583  0.85040801    -0.80400
O644        O  0.62162096  0.59141778  0.79389336    -0.90600
C645        C  0.54278967  0.47918931  0.91484081     0.83300
O646        O  0.58480864  0.52583562  0.74852302    -0.68800
O647        O  0.61724559  0.42187840  0.87546392    -0.88100
C648        C  0.55459907  0.50370384  0.76622650     0.84100
C649        C  0.60326639  0.59067699  0.82504641     1.05700
H650        H  0.57044797  0.45127708  0.83036169     0.37500
O651        O  0.59153714  0.46984407  0.84709278    -1.10800
O652        O  0.67228970  0.50593611  0.86244788    -0.67400
Ni653      Ni  0.63612521  0.48920091  0.81572643     1.26300
O654        O  0.55400928  0.49798161  0.80424414    -0.67700
O655        O  0.63507342  0.44210544  0.81249344    -0.80000
C656        C  0.67428970  0.51790141  0.74525417     0.83500
O657        O  0.67871384  0.50961601  0.78129684    -0.67100
Ni658      Ni  0.59119534  0.44625563  0.89719891     1.27400
Ni659      Ni  0.59044607  0.51641445  0.84939916     1.26100
H660        H  0.65593916  0.55361769  0.83507051     0.38000
C661        C  0.48464767  0.47167011  0.67564809    -0.14400
C662        C  0.44983965  0.44879768  0.69386083     0.07800
C663        C  0.44977660  0.44401495  0.73628741    -0.14400
C664        C  0.48363461  0.46156389  0.75977643    -0.14400
C665        C  0.51848775  0.48426791  0.74144530     0.07800
C666        C  0.51844090  0.48908295  0.69906158    -0.14400
H667        H  0.48588395  0.47594035  0.64310449     0.11800
H668        H  0.42351189  0.42674269  0.75143221     0.11800
H669        H  0.48246024  0.45742156  0.79234355     0.11800
H670        H  0.54462501  0.50640424  0.68381186     0.11800
C671        C  0.46249034  0.48726640  0.95947485    -0.14400
C672        C  0.45630826  0.46678157  0.99540339     0.07800
C673        C  0.48180595  0.45716010  0.50563575    -0.14400
C674        C  0.50684019  0.45489979  0.97830293    -0.14400
C675        C  0.51319196  0.47540304  0.94245027     0.07800
C676        C  0.49069865  0.49154453  0.93322136    -0.14400
H677        H  0.44569062  0.50012660  0.95173859     0.11800
H678        H  0.47874755  0.44253042  0.53384533     0.11800
H679        H  0.52352187  0.44196993  0.98629248     0.11800
H680        H  0.49488734  0.50748379  0.90577656     0.11800
C681        C  0.33031926  0.54594919  0.61494898    -0.14300
C682        C  0.32565231  0.57257456  0.61967469    -0.15900
C683        C  0.63754245  0.38942040  0.83471974    -0.14300
C684        C  0.64286621  0.36300397  0.83246363    -0.15900
C685        C  0.40202459  0.73950227  0.60896861    -0.14300
C686        C  0.37540805  0.70765409  0.61065218    -0.15900
C687        C  0.59135784  0.22782385  0.84098301    -0.14300
C688        C  0.56472837  0.19645657  0.84510126    -0.15900
C689        C  0.48047729  0.99290658  0.99393496    -0.14400
C690        C  0.48035552  0.99002225  0.95130278     0.07800
C691        C  0.49033518  0.96501120  0.93350679    -0.14400
C692        C  0.49709992  0.94153829  0.45925800    -0.14400
C693        C  0.50231032  0.94797111  0.50164264     0.07800
C694        C  0.49544793  0.97528033  0.51945678    -0.14400
H695        H  0.47269691  0.01183501  0.00836875     0.11800
H696        H  0.49063069  0.96239408  0.90067645     0.11800
H697        H  0.50224903  0.92073632  0.44470494     0.11800
H698        H  0.49956660  0.98110140  0.55200351     0.11800
C699        C  0.47513363  0.96602522  0.76824401    -0.14400
C700        C  0.45962104  0.98631899  0.74991878     0.07800
C701        C  0.46005898  0.98933288  0.70728710    -0.14400
C702        C  0.47517797  0.97189267  0.68347806    -0.14400
C703        C  0.48936840  0.95047162  0.70181095     0.07800
C704        C  0.48944187  0.94793219  0.74440521    -0.14400
H705        H  0.47501164  0.96298779  0.80097680     0.11800
H706        H  0.44830781  0.00478496  0.69231763     0.11800
H707        H  0.47434909  0.97384549  0.65063671     0.11800
H708        H  0.50007121  0.93144425  0.75925975     0.11800
C709        C  0.20886954  0.61506579  0.62949307    -0.14300
C710        C  0.24104702  0.62200542  0.62683681    -0.15900
C711        C  0.75874918  0.31952879  0.85340689    -0.14300
C712        C  0.72687938  0.31287584  0.84660402    -0.15900
C713        C  0.99823318  0.47806156  0.95153234    -0.14400
C714        C  0.96872227  0.44480421  0.96743304     0.07800
C715        C  0.96118504  0.44381519  0.00894786    -0.14400
C716        C  0.98311310  0.47631419  0.53250309    -0.14400
C717        C  0.00915999  0.51121287  0.51612613     0.07800
C718        C  0.01831339  0.51057790  0.97626370    -0.14400
H719        H  0.00447208  0.47952162  0.91951792     0.11800
H720        H  0.93870596  0.41845538  0.02196911     0.11800
H721        H  0.97677929  0.47410818  0.56452645     0.11800
H722        H  0.03975325  0.53639340  0.96292289     0.11800
C723        C  0.98532378  0.46580133  0.78475792    -0.14400
C724        C  0.96060227  0.43013436  0.76667182     0.07800
C725        C  0.95150287  0.42786908  0.72472997    -0.14400
C726        C  0.96894274  0.46016016  0.70087808    -0.14400
C727        C  0.99627579  0.49512782  0.71844370     0.07800
C728        C  0.00319806  0.49786088  0.76085165    -0.14400
H729        H  0.99266556  0.46861235  0.81701561     0.11800
H730        H  0.93205494  0.40085440  0.71004534     0.11800
H731        H  0.96292975  0.45724140  0.66832517     0.11800
H732        H  0.02379671  0.52455305  0.77533620     0.11800
C733        C  0.08884479  0.37605697  0.89606874    -0.14400
C734        C  0.10889809  0.37658992  0.86158842     0.07800
C735        C  0.09060695  0.36925877  0.82304175    -0.14400
C736        C  0.05348418  0.36182392  0.81896036    -0.14400
C737        C  0.03349686  0.36174050  0.85323669     0.07800
C738        C  0.05161685  0.36899043  0.89190427    -0.14400
H739        H  0.10199744  0.38142805  0.92625395     0.11800
H740        H  0.10492789  0.36919162  0.79578362     0.11800
H741        H  0.04053072  0.35648862  0.78866266     0.11800
H742        H  0.03692184  0.36886286  0.91891811     0.11800
C743        C  0.23566291  0.41592965  0.51453270    -0.14400
C744        C  0.27041005  0.41608462  0.01320878     0.07800
C745        C  0.27441023  0.39746788  0.97937709    -0.14400
C746        C  0.24978794  0.38756984  0.94566136    -0.14400
C747        C  0.22075771  0.39638848  0.94482048     0.07800
C748        C  0.21463907  0.41212470  0.98007389    -0.14400
H749        H  0.23317085  0.43161650  0.53986402     0.11800
H750        H  0.29818087  0.39281856  0.97799427     0.11800
H751        H  0.25487479  0.37494383  0.91918809     0.11800
H752        H  0.19255854  0.41932079  0.98013235     0.11800
C753        C  0.21596082  0.40733793  0.75809507    -0.14400
C754        C  0.22704951  0.40139886  0.79697994     0.07800
C755        C  0.26054292  0.40006404  0.80117722    -0.14400
C756        C  0.28200178  0.40374238  0.76761796    -0.14400
C757        C  0.27093439  0.40912158  0.72860793     0.07800
C758        C  0.23789696  0.41139806  0.72413153    -0.14400
H759        H  0.19044296  0.40882131  0.75395866     0.11800
H760        H  0.27014939  0.39560492  0.83049987     0.11800
H761        H  0.30741007  0.40214634  0.77241936     0.11800
H762        H  0.22872245  0.41560996  0.69444064     0.11800
C763        C  0.87552372  0.54961801  0.61765308    -0.14400
C764        C  0.86012219  0.55356759  0.58045417     0.07800
C765        C  0.88372758  0.56818769  0.54720583    -0.14400
C766        C  0.92183704  0.57920672  0.55112172    -0.14400
C767        C  0.93744368  0.57565579  0.58831557     0.07800
C768        C  0.91379991  0.56042711  0.62150300    -0.14400
H769        H  0.85807114  0.53832327  0.64388170     0.11800
H770        H  0.87293372  0.57160313  0.51811016     0.11800
H771        H  0.93902170  0.59031014  0.52466547     0.11800
H772        H  0.92486693  0.55700398  0.65042045     0.11800
C773        C  0.75308582  0.52106131  0.68329179    -0.14400
C774        C  0.73893075  0.51977644  0.64341811     0.07800
C775        C  0.70193461  0.51309857  0.63804384    -0.14400
C776        C  0.68076065  0.51083683  0.67137820    -0.14400
C777        C  0.69567230  0.51479275  0.71121960     0.07800
C778        C  0.73146841  0.51841113  0.71705244    -0.14400
H779        H  0.78129905  0.52563144  0.68842697     0.11800
H780        H  0.68959562  0.51106322  0.60792542     0.11800
H781        H  0.65289739  0.50709577  0.66580650     0.11800
H782        H  0.74342951  0.52109608  0.74750382     0.11800
C783        C  0.72441363  0.55338665  0.49902068    -0.14400
C784        C  0.75236668  0.54330253  0.99745191     0.07800
C785        C  0.75771232  0.52821576  0.96119789    -0.14400
C786        C  0.73262440  0.51959259  0.92734670    -0.14400
C787        C  0.70204137  0.52608476  0.92940194     0.07800
C788        C  0.69915349  0.54449576  0.96425437    -0.14400
H789        H  0.71999176  0.56485169  0.52687398     0.11800
H790        H  0.77918217  0.52021359  0.96017269     0.11800
H791        H  0.73513319  0.50485929  0.90109799     0.11800
H792        H  0.67587536  0.54979658  0.96672038     0.11800
C793        C  0.59157804  0.67441258  0.79929009    -0.14400
C794        C  0.57594368  0.67985091  0.83444738     0.07800
C795        C  0.57029345  0.65622766  0.86775690    -0.14400
C796        C  0.57955000  0.62745411  0.86545468    -0.14400
C797        C  0.59514273  0.62214276  0.83000102     0.07800
C798        C  0.60121049  0.64625330  0.79720187    -0.14400
H799        H  0.59652711  0.69202806  0.77311962     0.11800
H800        H  0.55826576  0.65962730  0.89536926     0.11800
H801        H  0.57432632  0.60931588  0.89121240     0.11800
H802        H  0.61281380  0.64296657  0.76920671     0.11800
C803        C  0.51501932  0.79750463  0.94402419    -0.14400
C804        C  0.53198123  0.79725171  0.98152734     0.07800
C805        C  0.55104353  0.77677316  0.98458689    -0.14400
C806        C  0.55511529  0.75896136  0.94971157    -0.14400
C807        C  0.54022670  0.76161655  0.91157316     0.07800
C808        C  0.51898185  0.77987978  0.90958149    -0.14400
H809        H  0.50005604  0.81297922  0.94093319     0.11800
H810        H  0.56477605  0.77663560  0.01312263     0.11800
H811        H  0.57166281  0.74508588  0.95209957     0.11800
H812        H  0.50658530  0.78189976  0.88088560     0.11800
C813        C  0.56151325  0.81295444  0.76886175    -0.14400
C814        C  0.55654418  0.77645828  0.76471285     0.07800
C815        C  0.54689069  0.75859747  0.72584355    -0.14400
C816        C  0.53901042  0.77561060  0.69280765    -0.14400
C817        C  0.54086777  0.81070293  0.69829598     0.07800
C818        C  0.55375485  0.82977712  0.73617535    -0.14400
H819        H  0.56960095  0.82785627  0.79810632     0.11800
H820        H  0.54290677  0.73049390  0.72167237     0.11800
H821        H  0.52863443  0.76007310  0.66405592     0.11800
H822        H  0.55551616  0.85686482  0.74123921     0.11800
C823        C  0.67601717  0.07258934  0.62137323    -0.14400
C824        C  0.69892895  0.08847466  0.58754447     0.07800
C825        C  0.69201512  0.06553070  0.55268475    -0.14400
C826        C  0.66282612  0.02780150  0.55146966    -0.14400
C827        C  0.63940242  0.01200884  0.58490731     0.07800
C828        C  0.64639095  0.03486642  0.61995480    -0.14400
H829        H  0.68058847  0.08946281  0.64881410     0.11800
H830        H  0.70920375  0.07668392  0.52624218     0.11800
H831        H  0.65820358  0.01116318  0.52382815     0.11800
H832        H  0.62895999  0.02364391  0.64621920     0.11800
C833        C  0.77529700  0.18906393  0.70386830    -0.14400
C834        C  0.78281903  0.20667016  0.66583380     0.07800
C835        C  0.80578321  0.24616925  0.66468838    -0.14400
C836        C  0.82329441  0.26725430  0.70001113    -0.14400
C837        C  0.81844871  0.24952308  0.73748383     0.07800
C838        C  0.79307134  0.21049119  0.73968348    -0.14400
H839        H  0.75739882  0.15867089  0.70566239     0.11800
H840        H  0.81153666  0.26084718  0.63615888     0.11800
H841        H  0.84233645  0.29746159  0.69770207     0.11800
H842        H  0.78903132  0.19632393  0.76837378     0.11800
C843        C  0.78020522  0.19643089  0.97994908    -0.14400
C844        C  0.79451035  0.20461601  0.51875963     0.07800
C845        C  0.83073231  0.24078999  0.02572439    -0.14400
C846        C  0.84672733  0.26578902  0.99407904    -0.14400
C847        C  0.82916385  0.25727419  0.95519747     0.07800
C848        C  0.79661254  0.22167844  0.94780258    -0.14400
H849        H  0.75381667  0.17024636  0.97426968     0.11800
H850        H  0.84607040  0.24337304  0.55283765     0.11800
H851        H  0.87197320  0.29288567  0.00058250     0.11800
H852        H  0.78240333  0.21460357  0.91808684     0.11800
C853        C  0.30024001  0.86600653  0.88259907    -0.14400
C854        C  0.26898638  0.84882606  0.85514614     0.07800
C855        C  0.26717880  0.86949915  0.82220237    -0.14400
C856        C  0.29601608  0.90655816  0.81662727    -0.14400
C857        C  0.32762388  0.92384310  0.84368123     0.07800
C858        C  0.32947072  0.90311996  0.87675609    -0.14400
H859        H  0.30250010  0.85046219  0.90797650     0.11800
H860        H  0.24336232  0.85698888  0.80062276     0.11800
H861        H  0.29362832  0.92150743  0.79073636     0.11800
H862        H  0.35357587  0.91544686  0.89794087     0.11800
C863        C  0.18038961  0.69737325  0.93951973    -0.14400
C864        C  0.19425793  0.73649923  0.93912004     0.07800
C865        C  0.19442368  0.75525125  0.97540775    -0.14400
C866        C  0.17763704  0.73439440  0.01035374    -0.14400
C867        C  0.16095923  0.69478810  0.00921423     0.07800
C868        C  0.16402207  0.67683309  0.97411115    -0.14400
H869        H  0.18035669  0.68221701  0.91225133     0.11800
H870        H  0.20490764  0.78542293  0.97584380     0.11800
H871        H  0.17540202  0.74856120  0.53691409     0.11800
H872        H  0.15119162  0.64629645  0.97248231     0.11800
C873        C  0.14021828  0.69203485  0.79616231    -0.14400
C874        C  0.17183266  0.72809600  0.79142862     0.07800
C875        C  0.18453344  0.73998148  0.75183677    -0.14400
C876        C  0.16762754  0.71501491  0.71814489    -0.14400
C877        C  0.13797247  0.67796024  0.72380125     0.07800
C878        C  0.12352144  0.66736352  0.76282493    -0.14400
H879        H  0.12915217  0.68215244  0.82597750     0.11800
H880        H  0.20867288  0.76775303  0.74716310     0.11800
H881        H  0.17933925  0.72374276  0.68834336     0.11800
H882        H  0.10035230  0.63906957  0.76793860     0.11800
C883        C  0.37579949  0.26004014  0.61927807    -0.14400
C884        C  0.39174680  0.25663763  0.58336314     0.07800
C885        C  0.39803884  0.28223634  0.55197292    -0.14400
C886        C  0.38962711  0.31148047  0.55733057    -0.14400
C887        C  0.37401089  0.31490894  0.59379911     0.07800
C888        C  0.36688596  0.28841012  0.62429798    -0.14400
H889        H  0.37007857  0.24059127  0.64385978     0.11800
H890        H  0.41026656  0.28021264  0.52386327     0.11800
H891        H  0.39550817  0.33140220  0.53323021     0.11800
H892        H  0.35505812  0.28994380  0.65289786     0.11800
C893        C  0.42357924  0.13387727  0.64746740    -0.14400
C894        C  0.42200377  0.16727592  0.65136423     0.07800
C895        C  0.42525954  0.18296724  0.69075604    -0.14400
C896        C  0.42832469  0.16444537  0.72543738    -0.14400
C897        C  0.42774726  0.12987122  0.72101501     0.07800
C898        C  0.42631059  0.11555248  0.68155757    -0.14400
H899        H  0.42163775  0.12095535  0.61789451     0.11800
H900        H  0.42462991  0.20896196  0.69477705     0.11800
H901        H  0.42968297  0.17629607  0.75548558     0.11800
H902        H  0.42652873  0.08939855  0.67680833     0.11800
C903        C  0.40044116  0.12409028  0.50473362    -0.14400
C904        C  0.40833663  0.16177741  0.50351640     0.07800
C905        C  0.42231104  0.18193730  0.46760990    -0.14400
C906        C  0.44223114  0.17235212  0.93617736    -0.14400
C907        C  0.43189216  0.13392764  0.93732012     0.07800
C908        C  0.41032848  0.10839640  0.47287484    -0.14400
H909        H  0.38899069  0.10752118  0.53167321     0.11800
H910        H  0.42865661  0.21098336  0.46587703     0.11800
H911        H  0.45914497  0.18977186  0.91174529     0.11800
H912        H  0.40657837  0.08035562  0.47607574     0.11800
loop_ 
_geom_bond_atom_site_label_1 
_geom_bond_atom_site_label_2 
_geom_bond_distance 
_geom_bond_site_symmetry_2 
_ccdc_geom_bond_type 
C1            N2   1.363       .  A
C1            N6   1.367       .  A
C1          C428   1.483       .  S
N2            C3   1.353       .  A
C3            N4   1.354       .  A
C3          C438   1.487       .  S
N4            C5   1.357       .  A
C5            N6   1.364       .  A
C5          C448   1.481       .  S
C7            N8   1.365       .  A
C7           N12   1.366       .  A
C7          C398   1.481       .  S
N8            C9   1.360       .  A
C9           N10   1.355       .  A
C9          C408   1.481       .  S
N10          C11   1.354       .  A
C11          N12   1.358       .  A
C11         C418   1.488       .  S
C13          N14   1.360       .  A
C13          N18   1.371       .  A
C13         C368   1.482       .  S
N14          C15   1.353       .  A
C15          N16   1.352       .  A
C15         C378   1.475       .  S
N16          C17   1.354       .  A
C17          N18   1.364       .  A
C17         C388   1.490       .  S
C19          N20   1.367       .  A
C19          N24   1.365       .  A
C19         C338   1.486       .  S
N20          C21   1.359       .  A
C21          N22   1.355       .  A
C21         C358   1.484       .  S
N22          C23   1.355       .  A
C23          N24   1.359       .  A
C23         C351   1.482       .  S
C25          N26   1.371       .  A
C25          N30   1.364       .  A
C25         C308   1.489       .  S
N26          C27   1.362       .  A
C27          N28   1.352       .  A
C27         C784   1.488   1_554  S
N28          C29   1.354       .  A
C29          N30   1.357       .  A
C29         C318   1.483       .  S
C31          N32   1.365       .  A
C31          N36   1.366       .  A
C31         C278   1.484       .  S
N32          C33   1.360       .  A
C33          N34   1.355       .  A
C33         C291   1.481       .  S
N34          C35   1.355       .  A
C35          N36   1.358       .  A
C35         C298   1.489       .  S
O37         Ni43   1.912       .  S
O37          C58   1.268       .  A
O38         Ni61   1.899       .  S
O38          C47   1.264       .  A
O39         Ni43   1.912       .  S
O39         Ni61   1.906       .  S
O39         Ni55   1.915       .  S
O39          H62   0.964       .  S
C40          O57   1.271       .  A
C40          O49   1.276       .  A
C40         C255   1.436       .  S
O41         Ni60   1.932       .  S
O41          C47   1.272       .  A
O42         Ni60   1.899       .  S
O42          C44   1.269       .  A
Ni43         O46   1.917       .  S
Ni43         O48   1.908       .  S
C44         C391   1.479       .  S
C44          O54   1.276       .  A
O45         Ni61   1.927       .  S
O45          C51   1.277       .  A
O46          C51   1.275       .  A
C47         C258   1.473       .  S
O48          C50   1.266       .  A
O49         Ni60   1.933       .  S
C50         C268   1.482       .  S
C50          O56   1.269       .  A
C51         C281   1.484   1_655  S
H52          O53   0.966       .  S
O53         Ni61   1.915       .  S
O53         Ni55   1.907       .  S
O53         Ni60   1.906       .  S
O54         Ni55   1.945       .  S
Ni55         O59   1.910       .  S
Ni55         O57   1.909       .  S
O56         Ni61   1.922       .  S
C58         C381   1.465       .  S
C58          O59   1.266       .  A
O63         Ni69   1.921       .  S
O63          C84   1.270       .  A
O64         Ni87   1.916       .  S
O64          C73   1.266       .  A
O65         Ni69   1.911       .  S
O65         Ni87   1.913       .  S
O65         Ni81   1.912       .  S
O65          H88   0.969       .  S
C66          O83   1.271       .  A
C66          O75   1.274       .  A
C66         C253   1.435       .  S
O67         Ni86   1.928       .  S
O67          C73   1.270       .  A
O68         Ni86   1.891       .  S
O68          C70   1.269       .  A
Ni69         O72   1.922   1_455  S
Ni69         O74   1.906       .  S
C70         C421   1.483       .  S
C70          O80   1.279       .  A
O71         Ni87   1.929   1_655  S
O71          C77   1.280       .  A
O72          C77   1.277       .  A
C73         C271   1.477   1_455  S
O74          C76   1.266       .  A
O75         Ni86   1.925       .  S
C76         C261   1.473       .  S
C76          O82   1.265       .  A
C77         C311   1.487       .  S
H78          O79   0.967       .  S
O79         Ni87   1.921       .  S
O79         Ni81   1.912       .  S
O79         Ni86   1.902       .  S
O80         Ni81   1.949       .  S
Ni81         O85   1.921       .  S
Ni81         O83   1.914       .  S
O82         Ni87   1.909       .  S
C84         C867   1.474       .  S
C84          O85   1.270       .  A
O89         Ni95   1.917       .  S
O89         C110   1.270       .  A
O90        Ni113   1.899       .  S
O90          C99   1.264       .  A
O91         Ni95   1.913       .  S
O91        Ni113   1.911       .  S
O91        Ni107   1.915       .  S
O91         H114   0.966       .  S
C92         O109   1.272       .  A
C92         O101   1.275       .  A
C92         C232   1.438       .  S
O93        Ni112   1.942       .  S
O93          C99   1.273       .  A
O94        Ni112   1.900       .  S
O94          C96   1.270       .  A
Ni95         O98   1.920   1_545  S
Ni95        O100   1.910       .  S
C96         C451   1.476       .  S
C96         O106   1.277       .  A
O97        Ni113   1.920   1_565  S
O97         C103   1.275       .  A
O98         C103   1.275       .  A
C99         C234   1.480   1_545  S
O100        C102   1.268       .  A
O101       Ni112   1.933       .  S
C102        C244   1.484   1_545  S
C102        O108   1.270       .  A
C103        C401   1.486       .  S
H104        O105   0.967       .  S
O105       Ni113   1.912       .  S
O105       Ni107   1.920       .  S
O105       Ni112   1.913       .  S
O106       Ni107   1.948       .  S
Ni107       O111   1.927       .  S
Ni107       O109   1.911       .  S
O108       Ni113   1.924       .  S
C110        C441   1.484       .  S
C110        O111   1.272       .  A
O115       Ni121   1.921       .  S
O115        C136   1.271       .  A
O116       Ni139   1.917       .  S
O116        C125   1.268       .  A
O117       Ni121   1.903       .  S
O117       Ni139   1.908       .  S
O117       Ni133   1.919       .  S
O117        H140   0.966       .  S
C118        O135   1.278       .  A
C118        O127   1.276       .  A
C118        C229   1.441       .  S
O119       Ni138   1.928       .  S
O119        C125   1.269       .  A
O120       Ni138   1.894       .  S
O120        C122   1.268       .  A
Ni121       O124   1.918       .  S
Ni121       O126   1.908       .  S
C122        C361   1.478       .  S
C122        O132   1.276       .  A
O123       Ni139   1.935       .  S
O123        C129   1.282       .  A
O124        C129   1.277       .  A
C125        C247   1.480       .  S
O126        C128   1.268       .  A
O127       Ni138   1.925       .  S
C128        C237   1.483       .  S
C128        O134   1.270       .  A
C129        C371   1.488   1_565  S
H130        O131   0.966       .  S
O131       Ni139   1.920       .  S
O131       Ni133   1.913       .  S
O131       Ni138   1.902       .  S
O132       Ni133   1.946       .  S
Ni133       O137   1.927       .  S
Ni133       O135   1.928       .  S
O134       Ni139   1.925       .  S
C136        C804   1.477   1_554  S
C136        O137   1.272       .  A
C141        N142   1.359       .  A
C141        N146   1.357       .  A
C141        C231   1.439       .  S
N142        C143   1.359       .  A
C143        N144   1.356       .  A
C143        C256   1.437       .  S
N144        C145   1.356       .  A
C145        N146   1.357       .  A
C145        C228   1.434       .  S
C147        N148   1.358       .  A
C147        N152   1.359       .  A
C147        C230   1.442       .  S
N148        C149   1.358       .  A
C149        N150   1.355       .  A
C149        C226   1.432       .  S
N150        C151   1.355       .  A
C151        N152   1.359       .  A
C151        C254   1.435       .  S
O153       Ni159   1.934       .  S
O153        C174   1.271       .  A
O154       Ni177   1.924       .  S
O154        C163   1.271       .  A
O155       Ni159   1.915       .  S
O155       Ni177   1.923       .  S
O155       Ni171   1.918       .  S
O155        H178   0.966       .  S
C156        C431   1.486       .  S
C156        O173   1.277       .  A
C156        O165   1.276       .  A
O157       Ni176   1.921       .  S
O157        C163   1.270       .  A
O158       Ni176   1.910       .  S
O158        C160   1.267       .  A
Ni159       O162   1.922       .  S
Ni159       O164   1.895       .  S
C160        C206   1.487       .  S
C160        O170   1.269       .  A
O161       Ni177   1.907       .  S
O161        C167   1.269       .  A
O162        C167   1.271       .  A
C163        C301   1.487       .  S
O164        C166   1.269       .  A
O165       Ni176   1.916       .  S
C166        C744   1.469       .  S
C166        O172   1.277       .  A
C167        C225   1.431       .  S
H168        O169   0.966       .  S
O169       Ni177   1.907       .  S
O169       Ni171   1.903       .  S
O169       Ni176   1.907       .  S
O170       Ni171   1.923       .  S
Ni171       O175   1.891       .  S
Ni171       O173   1.928       .  S
O172       Ni177   1.945       .  S
C174        C672   1.479   1_554  S
C174        O175   1.264       .  A
O179       Ni185   1.917       .  S
O179        C200   1.269       .  A
O180       Ni203   1.899       .  S
O180        C189   1.266       .  A
O181       Ni185   1.907       .  S
O181       Ni203   1.898       .  S
O181       Ni197   1.905       .  S
O181        H204   0.966       .  S
C182        O199   1.265       .  A
C182        O191   1.271       .  A
C182        C227   1.434       .  S
O183       Ni202   1.920       .  S
O183        C189   1.271       .  A
O184       Ni202   1.893       .  S
O184        C186   1.269       .  A
Ni185       O188   1.917       .  S
Ni185       O190   1.907       .  S
C186        C331   1.478       .  S
C186        O196   1.281       .  A
O187       Ni203   1.931       .  S
O187        C193   1.280       .  A
O188        C193   1.277       .  A
C189        C219   1.478       .  S
O190        C192   1.267       .  A
O191       Ni202   1.934       .  S
C192        C209   1.488       .  S
C192        O198   1.270       .  A
C193        C341   1.488       .  S
H194        O195   0.966       .  S
O195       Ni203   1.933       .  S
O195       Ni197   1.917       .  S
O195       Ni202   1.910       .  S
O196       Ni197   1.963       .  S
Ni197       O201   1.917       .  S
Ni197       O199   1.902       .  S
O198       Ni203   1.927       .  S
C200        C321   1.478       .  S
C200        O201   1.268       .  A
C205        C206   1.406       .  A
C205        C210   1.398       .  A
C205        H211   1.083       .  S
C206        C207   1.407       .  A
C207        C208   1.401       .  A
C207        H212   1.083       .  S
C208        C209   1.407       .  A
C208        H213   1.083       .  S
C209        C210   1.407       .  A
C210        H214   1.083       .  S
C215        C216   1.407       .  A
C215        C220   1.400       .  A
C215        H221   1.083       .  S
C216        C630   1.479       .  S
C216        C673   1.404       .  A
C217        C672   1.404   1_554  A
C217        C674   1.392   1_554  A
C217        H222   1.083       .  S
C218        C219   1.405       .  A
C218        C673   1.391       .  A
C218        H223   1.083       .  S
C219        C220   1.406       .  A
C220        H224   1.083       .  S
C225        C226   1.203       .  T
C227        C228   1.205       .  T
C229        C230   1.210       .  T
C231        C232   1.208       .  T
C233        C234   1.405       .  A
C233        C694   1.400       .  A
C233        H239   1.083   1_565  S
C234        C235   1.406       .  A
C235        C692   1.399       .  A
C235        H240   1.083       .  S
C236        C237   1.406   1_556  A
C236        C691   1.398       .  A
C236        H241   1.083       .  S
C237        C238   1.407       .  A
C238        C689   1.400   1_554  A
C238        H242   1.083       .  S
C243        C244   1.406       .  A
C243        C248   1.398       .  A
C243        H249   1.083       .  S
C244        C245   1.407       .  A
C245        C246   1.401       .  A
C245        H250   1.083   1_565  S
C246        C247   1.405       .  A
C246        H251   1.083       .  S
C247        C248   1.405       .  A
C248        H252   1.083       .  S
C253        C254   1.206       .  T
C255        C256   1.207       .  T
C257        C258   1.405       .  A
C257        C262   1.398   1_655  A
C257        H263   1.083   1_655  S
C258        C259   1.402       .  A
C259        C716   1.393       .  A
C259        H264   1.083       .  S
C260        C261   1.407   1_655  A
C260        C715   1.392       .  A
C260        H265   1.083       .  S
C261        C718   1.403   1_554  A
C262        C717   1.406       .  A
C262        H266   1.083       .  S
C267        C268   1.405       .  A
C267        C272   1.395   1_655  A
C267        H273   1.083       .  S
C268        C269   1.408       .  A
C269        C270   1.402       .  A
C269        H274   1.083       .  S
C270        C271   1.405       .  A
C270        H275   1.083       .  S
C271        C272   1.403   1_655  A
C272        H276   1.083       .  S
C277        C278   1.409       .  A
C277        C282   1.404       .  A
C277        H283   1.083       .  S
C278        C279   1.404       .  A
C279        C280   1.394       .  A
C279        H284   1.083       .  S
C280        C281   1.406       .  A
C280        H285   1.083       .  S
C281        C282   1.406       .  A
C282        H286   1.083       .  S
C287        C744   1.406       .  A
C287        C748   1.406   1_554  A
C287        H293   1.083       .  S
C288        C622   1.475       .  S
C288        C289   1.401       .  A
C288        C743   1.406       .  A
C289        C290   1.392       .  A
C289        H294   1.084       .  S
C290        C291   1.405       .  A
C290        H295   1.083       .  S
C291        C292   1.407       .  A
C292        C743   1.406       .  A
C292        H296   1.083       .  S
C297        C298   1.410       .  A
C297        C302   1.410       .  A
C297        H303   1.083       .  S
C298        C299   1.404       .  A
C299        C300   1.389       .  A
C299        H304   1.083       .  S
C300        C301   1.405       .  A
C300        H305   1.083       .  S
C301        C302   1.408       .  A
C302        H306   1.083       .  S
C307        C308   1.412       .  A
C307        C312   1.404       .  A
C307        H313   1.083       .  S
C308        C309   1.403       .  A
C309        C310   1.396       .  A
C309        H314   1.083       .  S
C310        C311   1.409       .  A
C310        H315   1.083       .  S
C311        C312   1.404       .  A
C312        H316   1.083       .  S
C317        C318   1.410       .  A
C317        C322   1.407       .  A
C317        H323   1.083       .  S
C318        C319   1.403       .  A
C319        C320   1.385       .  A
C319        H324   1.083       .  S
C320        C321   1.403       .  A
C320        H325   1.083       .  S
C321        C322   1.406       .  A
C322        H326   1.083       .  S
C327        C784   1.406       .  A
C327        C788   1.396       .  A
C327        H333   1.084   1_556  S
C328        C483   1.480       .  S
C328        C329   1.406       .  A
C328        C783   1.404       .  A
C329        C330   1.407       .  A
C329        H334   1.083       .  S
C330        C331   1.407       .  A
C330        H335   1.083       .  S
C331        C332   1.403       .  A
C332        C783   1.392       .  A
C332        H336   1.084       .  S
C337        C338   1.404       .  A
C337        C342   1.396       .  A
C337        H343   1.083       .  S
C338        C339   1.408       .  A
C339        C340   1.403       .  A
C339        H344   1.083       .  S
C340        C341   1.406       .  A
C340        H345   1.083       .  S
C341        C342   1.409       .  A
C342        H346   1.083       .  S
C347        C348   1.402       .  A
C347        C352   1.391       .  A
C347        H353   1.084       .  S
C348        C592   1.475       .  S
C348        C349   1.405       .  A
C349        C350   1.407       .  A
C349        H354   1.083       .  S
C350        C351   1.408       .  A
C350        H355   1.083       .  S
C351        C352   1.404       .  A
C352        H356   1.083       .  S
C357        C358   1.404       .  A
C357        C362   1.392       .  A
C357        H363   1.083       .  S
C358        C359   1.408       .  A
C359        C360   1.408       .  A
C359        H364   1.083       .  S
C360        C361   1.407       .  A
C360        H365   1.083       .  S
C361        C362   1.402       .  A
C362        H366   1.084       .  S
C367        C368   1.410       .  A
C367        C372   1.401       .  A
C367        H373   1.083       .  S
C368        C369   1.400       .  A
C369        C370   1.397       .  A
C369        H374   1.083       .  S
C370        C371   1.410       .  A
C370        H375   1.083       .  S
C371        C372   1.405       .  A
C372        H376   1.083       .  S
C377        C378   1.409       .  A
C377        C382   1.404       .  A
C377        H383   1.083       .  S
C378        C379   1.402       .  A
C379        C380   1.385       .  A
C379        H384   1.083       .  S
C380        C381   1.401       .  A
C380        H385   1.084       .  S
C381        C382   1.402       .  A
C382        H386   1.083       .  S
C387        C392   1.410       .  A
C387        C844   1.408       .  A
C387        H393   1.083       .  S
C388        C843   1.409   1_554  A
C388        C845   1.407       .  A
C389        C390   1.393       .  A
C389        C844   1.407       .  A
C389        H850   1.083       .  S
C390        C391   1.401       .  A
C390        H395   1.084       .  S
C391        C392   1.408       .  A
C392        H396   1.083       .  S
H394        C845   1.083       .  S
C397        C398   1.407       .  A
C397        C402   1.402       .  A
C397        H403   1.083       .  S
C398        C399   1.403       .  A
C399        C400   1.395       .  A
C399        H404   1.083       .  S
C400        C401   1.407       .  A
C400        H405   1.083       .  S
C401        C402   1.408       .  A
C402        H406   1.083       .  S
C407        C408   1.404       .  A
C407        C412   1.391       .  A
C407        H413   1.083       .  S
C408        C409   1.408       .  A
C409        C410   1.408       .  A
C409        H414   1.083       .  S
C410        C411   1.405       .  A
C410        H871   1.083       .  S
C411        C540   1.472       .  S
C411        C412   1.401       .  A
C412        H416   1.084       .  S
H415        C866   1.083       .  S
C417        C418   1.404       .  A
C417        C422   1.389       .  A
C417        H423   1.083       .  S
C418        C419   1.411       .  A
C419        C420   1.410       .  A
C419        H424   1.083       .  S
C420        C421   1.407       .  A
C420        H425   1.083       .  S
C421        C422   1.404       .  A
C422        H426   1.084       .  S
C427        C428   1.403       .  A
C427        C432   1.389       .  A
C427        H433   1.083       .  S
C428        C429   1.408       .  A
C429        C430   1.408       .  A
C429        H434   1.083       .  S
C430        C431   1.409       .  A
C430        H435   1.083       .  S
C431        C432   1.405       .  A
C432        H436   1.083       .  S
C437        C438   1.403       .  A
C437        C442   1.390       .  A
C437        H443   1.083       .  S
C438        C439   1.412       .  A
C439        C440   1.409       .  A
C439        H444   1.083       .  S
C440        C441   1.406       .  A
C440        H445   1.083       .  S
C441        C442   1.406       .  A
C442        H446   1.083       .  S
C447        C448   1.406       .  A
C447        C452   1.393   1_554  A
C447        H453   1.083       .  S
C448        C449   1.406   1_554  A
C449        C906   1.408       .  A
C449        H454   1.083       .  S
C450        C451   1.407       .  A
C450        C905   1.407       .  A
C450        H455   1.083       .  S
C451        C908   1.401       .  A
C452        C907   1.400       .  A
C452        H456   1.084       .  S
C457        N458   1.367       .  A
C457        N462   1.368       .  A
C457        C884   1.485       .  S
N458        C459   1.356       .  A
C459        N460   1.352       .  A
C459        C894   1.488       .  S
N460        C461   1.353       .  A
C461        N462   1.364       .  A
C461        C904   1.482       .  S
C463        N464   1.365       .  A
C463        N468   1.362       .  A
C463        C854   1.476       .  S
N464        C465   1.360       .  A
C465        N466   1.357       .  A
C465        C864   1.481       .  S
N466        C467   1.356       .  A
C467        N468   1.355       .  A
C467        C874   1.483       .  S
C469        N470   1.363       .  A
C469        N474   1.370       .  A
C469        C824   1.486       .  S
N470        C471   1.356       .  A
C471        N472   1.353       .  A
C471        C834   1.480       .  S
N472        C473   1.353       .  A
C473        N474   1.363       .  A
C473        C844   1.488       .  S
C475        N476   1.369       .  A
C475        N480   1.365       .  A
C475        C794   1.489       .  S
N476        C477   1.360       .  A
C477        N478   1.355       .  A
C477        C814   1.489       .  S
N478        C479   1.357       .  A
C479        N480   1.360       .  A
C479        C807   1.483       .  S
C481        N482   1.367       .  A
C481        N486   1.364       .  A
C481        C764   1.483       .  S
N482        C483   1.358       .  A
C483        N484   1.352       .  A
N484        C485   1.354       .  A
C485        N486   1.358       .  A
C485        C774   1.484       .  S
C487        N488   1.367       .  A
C487        N492   1.366       .  A
C487        C734   1.489       .  S
N488        C489   1.361       .  A
C489        N490   1.354       .  A
C489        C747   1.480       .  S
N490        C491   1.353       .  A
C491        N492   1.358       .  A
C491        C754   1.485       .  S
O493       Ni499   1.915       .  S
O493        C514   1.269       .  A
O494       Ni517   1.895       .  S
O494        C503   1.263       .  A
O495       Ni499   1.913       .  S
O495       Ni517   1.907       .  S
O495       Ni511   1.913       .  S
O495        H518   0.964       .  S
C496        O513   1.269       .  A
C496        O505   1.274       .  A
C496        C711   1.437       .  S
O497       Ni516   1.930       .  S
O497        C503   1.271       .  A
O498       Ni516   1.894       .  S
O498        C500   1.269       .  A
Ni499       O502   1.924       .  S
Ni499       O504   1.906       .  S
C500        C847   1.480       .  S
C500        O510   1.278       .  A
O501       Ni517   1.928       .  S
O501        C507   1.277       .  A
O502        C507   1.276       .  A
C503        C714   1.470       .  S
O504        C506   1.265       .  A
O505       Ni516   1.931       .  S
C506        C724   1.484       .  S
C506        O512   1.269       .  A
C507        C737   1.488   1_655  S
H508        O509   0.966       .  S
O509       Ni517   1.921       .  S
O509       Ni511   1.913       .  S
O509       Ni516   1.912       .  S
O510       Ni511   1.949       .  S
Ni511       O515   1.912       .  S
Ni511       O513   1.908       .  S
O512       Ni517   1.929       .  S
C514        C837   1.469       .  S
C514        O515   1.267       .  A
O519       Ni525   1.923       .  S
O519        C540   1.270       .  A
O520       Ni543   1.922       .  S
O520        C529   1.269       .  A
O521       Ni525   1.909       .  S
O521       Ni543   1.915       .  S
O521       Ni537   1.909       .  S
O521        H544   0.969       .  S
C522        O539   1.271       .  A
C522        O531   1.275       .  A
C522        C709   1.436       .  S
O523       Ni542   1.928       .  S
O523        C529   1.268       .  A
O524       Ni542   1.889       .  S
O524        C526   1.267       .  A
Ni525       O528   1.920   1_455  S
Ni525       O530   1.904       .  S
C526        C877   1.475       .  S
C526        O536   1.276       .  A
O527       Ni543   1.917   1_655  S
O527        C533   1.277       .  A
O528        C533   1.276       .  A
C529        C727   1.483   1_455  S
O530        C532   1.266       .  A
O531       Ni542   1.927       .  S
C532        C717   1.477       .  S
C532        O538   1.269       .  A
C533        C767   1.481       .  S
H534        O535   0.967       .  S
O535       Ni543   1.917       .  S
O535       Ni537   1.913       .  S
O535       Ni542   1.905       .  S
O536       Ni537   1.940       .  S
Ni537       O541   1.918       .  S
Ni537       O539   1.913       .  S
O538       Ni543   1.921       .  S
C540        O541   1.269       .  A
O545       Ni551   1.916       .  S
O545        C566   1.270       .  A
O546       Ni569   1.899       .  S
O546        C555   1.264       .  A
O547       Ni551   1.914       .  S
O547       Ni569   1.913       .  S
O547       Ni563   1.920       .  S
O547        H570   0.966       .  S
C548        O565   1.273       .  A
C548        O557   1.276       .  A
C548        C688   1.437       .  S
O549       Ni568   1.943       .  S
O549        C555   1.273       .  A
O550       Ni568   1.901       .  S
O550        C552   1.269       .  A
Ni551       O554   1.919   1_545  S
Ni551       O556   1.908       .  S
C552        C907   1.474       .  S
C552        O562   1.275       .  A
O553       Ni569   1.916   1_565  S
O553        C559   1.274       .  A
O554        C559   1.275       .  A
C555        C690   1.478   1_545  S
O556        C558   1.267       .  A
O557       Ni568   1.933       .  S
C558        C700   1.481   1_545  S
C558        O564   1.269       .  A
C559        C857   1.483       .  S
H560        O561   0.967       .  S
O561       Ni569   1.906       .  S
O561       Ni563   1.914       .  S
O561       Ni568   1.909       .  S
O562       Ni563   1.945       .  S
Ni563       O567   1.925       .  S
Ni563       O565   1.911       .  S
O564       Ni569   1.920       .  S
C566        C897   1.485       .  S
C566        O567   1.271       .  A
O571       Ni577   1.922       .  S
O571        C592   1.271       .  A
O572       Ni595   1.913       .  S
O572        C581   1.267       .  A
O573       Ni577   1.904       .  S
O573       Ni595   1.907       .  S
O573       Ni589   1.919       .  S
O573        H596   0.966       .  S
C574        O591   1.278       .  A
C574        O583   1.275       .  A
C574        C685   1.441       .  S
O575       Ni594   1.925       .  S
O575        C581   1.268       .  A
O576       Ni594   1.896       .  S
O576        C578   1.268       .  A
Ni577       O580   1.921       .  S
Ni577       O582   1.907       .  S
C578        C817   1.482       .  S
C578        O588   1.278       .  A
O579       Ni595   1.934       .  S
O579        C585   1.282       .  A
O580        C585   1.278       .  A
C581        C703   1.476       .  S
O582        C584   1.267       .  A
O583       Ni594   1.924       .  S
C584        C693   1.481       .  S
C584        O590   1.269       .  A
C585        C827   1.488   1_565  S
H586        O587   0.966       .  S
O587       Ni595   1.921       .  S
O587       Ni589   1.912       .  S
O587       Ni594   1.903       .  S
O588       Ni589   1.951       .  S
Ni589       O593   1.924       .  S
Ni589       O591   1.929       .  S
O590       Ni595   1.924       .  S
C592        O593   1.271       .  A
C597        N598   1.359       .  A
C597        N602   1.358       .  A
C597        C687   1.438       .  S
N598        C599   1.358       .  A
C599        N600   1.357       .  A
C599        C712   1.437       .  S
N600        C601   1.356       .  A
C601        N602   1.358       .  A
C601        C684   1.436       .  S
C603        N604   1.358       .  A
C603        N608   1.360       .  A
C603        C686   1.443       .  S
N604        C605   1.358       .  A
C605        N606   1.355       .  A
C605        C682   1.435       .  S
N606        C607   1.355       .  A
C607        N608   1.360       .  A
C607        C710   1.437       .  S
O609       Ni615   1.932       .  S
O609        C630   1.272       .  A
O610       Ni633   1.919       .  S
O610        C619   1.268       .  A
O611       Ni615   1.915       .  S
O611       Ni633   1.917       .  S
O611       Ni627   1.924       .  S
O611        H634   0.966       .  S
C612        C887   1.491       .  S
C612        O629   1.279       .  A
C612        O621   1.275       .  A
O613       Ni632   1.918       .  S
O613        C619   1.269       .  A
O614       Ni632   1.912       .  S
O614        C616   1.268       .  A
Ni615       O618   1.935       .  S
Ni615       O620   1.898       .  S
C616        C662   1.492       .  S
C616        O626   1.272       .  A
O617       Ni633   1.903       .  S
O617        C623   1.266       .  A
O618        C623   1.272       .  A
C619        C757   1.482       .  S
O620        C622   1.269       .  A
O621       Ni632   1.911       .  S
C622        O628   1.278       .  A
C623        C681   1.434       .  S
H624        O625   0.966       .  S
O625       Ni633   1.908       .  S
O625       Ni627   1.905       .  S
O625       Ni632   1.908       .  S
O626       Ni627   1.930       .  S
Ni627       O631   1.891       .  S
Ni627       O629   1.939       .  S
O628       Ni633   1.956       .  S
C630        O631   1.266       .  A
O635       Ni641   1.924       .  S
O635        C656   1.271       .  A
O636       Ni659   1.895       .  S
O636        C645   1.265       .  A
O637       Ni641   1.911       .  S
O637       Ni659   1.906       .  S
O637       Ni653   1.909       .  S
O637        H660   0.966       .  S
C638        O655   1.267       .  A
C638        O647   1.271       .  A
C638        C683   1.436       .  S
O639       Ni658   1.925       .  S
O639        C645   1.272       .  A
O640       Ni658   1.897       .  S
O640        C642   1.269       .  A
Ni641       O644   1.918       .  S
Ni641       O646   1.911       .  S
C642        C787   1.484       .  S
C642        O652   1.282       .  A
O643       Ni659   1.933       .  S
O643        C649   1.278       .  A
O644        C649   1.276       .  A
C645        C675   1.478       .  S
O646        C648   1.268       .  A
O647       Ni658   1.932       .  S
C648        C665   1.493       .  S
C648        O654   1.271       .  A
C649        C797   1.490       .  S
H650        O651   0.966       .  S
O651       Ni659   1.927       .  S
O651       Ni653   1.918       .  S
O651       Ni658   1.912       .  S
O652       Ni653   1.967       .  S
Ni653       O657   1.916       .  S
Ni653       O655   1.906       .  S
O654       Ni659   1.933       .  S
C656        C777   1.480       .  S
C656        O657   1.268       .  A
C661        C662   1.406       .  A
C661        C666   1.401       .  A
C661        H667   1.083       .  S
C662        C663   1.409       .  A
C663        C664   1.404       .  A
C663        H668   1.083       .  S
C664        C665   1.408       .  A
C664        H669   1.083       .  S
C665        C666   1.408       .  A
C666        H670   1.083       .  S
C671        C672   1.407       .  A
C671        C676   1.399       .  A
C671        H677   1.083       .  S
C673        H678   1.083       .  S
C674        C675   1.404       .  A
C674        H679   1.083       .  S
C675        C676   1.407       .  A
C676        H680   1.083       .  S
C681        C682   1.205       .  T
C683        C684   1.206       .  T
C685        C686   1.210       .  T
C687        C688   1.207       .  T
C689        C690   1.404       .  A
C689        H695   1.083   1_566  S
C690        C691   1.405       .  A
C691        H696   1.083       .  S
C692        C693   1.405       .  A
C692        H697   1.083       .  S
C693        C694   1.406       .  A
C694        H698   1.083       .  S
C699        C700   1.406       .  A
C699        C704   1.397       .  A
C699        H705   1.083       .  S
C700        C701   1.407       .  A
C701        C702   1.400       .  A
C701        H706   1.083   1_565  S
C702        C703   1.405       .  A
C702        H707   1.083       .  S
C703        C704   1.404       .  A
C704        H708   1.083       .  S
C709        C710   1.207       .  T
C711        C712   1.207       .  T
C713        C714   1.405       .  A
C713        C718   1.396   1_655  A
C713        H719   1.083   1_655  S
C714        C715   1.402   1_556  A
C715        H720   1.083       .  S
C716        C717   1.406   1_655  A
C716        H721   1.083       .  S
C718        H722   1.083       .  S
C723        C724   1.405       .  A
C723        C728   1.398   1_655  A
C723        H729   1.083       .  S
C724        C725   1.408       .  A
C725        C726   1.402       .  A
C725        H730   1.083       .  S
C726        C727   1.405       .  A
C726        H731   1.083       .  S
C727        C728   1.407   1_655  A
C728        H732   1.083       .  S
C733        C734   1.409       .  A
C733        C738   1.405       .  A
C733        H739   1.083       .  S
C734        C735   1.405       .  A
C735        C736   1.396       .  A
C735        H740   1.083       .  S
C736        C737   1.407       .  A
C736        H741   1.083       .  S
C737        C738   1.406       .  A
C738        H742   1.083       .  S
C743        H749   1.083       .  S
C744        C745   1.399   1_554  A
C745        C746   1.391       .  A
C745        H750   1.084       .  S
C746        C747   1.405       .  A
C746        H751   1.083       .  S
C747        C748   1.407       .  A
C748        H752   1.083       .  S
C753        C754   1.409       .  A
C753        C758   1.408       .  A
C753        H759   1.083       .  S
C754        C755   1.404       .  A
C755        C756   1.388       .  A
C755        H760   1.083       .  S
C756        C757   1.405       .  A
C756        H761   1.083       .  S
C757        C758   1.407       .  A
C758        H762   1.083       .  S
C763        C764   1.409       .  A
C763        C768   1.401       .  A
C763        H769   1.083       .  S
C764        C765   1.403       .  A
C765        C766   1.393       .  A
C765        H770   1.083       .  S
C766        C767   1.408       .  A
C766        H771   1.083       .  S
C767        C768   1.404       .  A
C768        H772   1.083       .  S
C773        C774   1.409       .  A
C773        C778   1.407       .  A
C773        H779   1.083       .  S
C774        C775   1.405       .  A
C775        C776   1.388       .  A
C775        H780   1.083       .  S
C776        C777   1.403       .  A
C776        H781   1.083       .  S
C777        C778   1.406       .  A
C778        H782   1.083       .  S
C783        H789   1.084       .  S
C784        C785   1.407       .  A
C785        C786   1.410       .  A
C785        H790   1.083       .  S
C786        C787   1.408       .  A
C786        H791   1.083       .  S
C787        C788   1.403       .  A
C788        H792   1.084       .  S
C793        C794   1.402       .  A
C793        C798   1.394       .  A
C793        H799   1.083       .  S
C794        C795   1.411       .  A
C795        C796   1.408       .  A
C795        H800   1.083       .  S
C796        C797   1.408       .  A
C796        H801   1.083       .  S
C797        C798   1.408       .  A
C798        H802   1.083       .  S
C803        C804   1.402       .  A
C803        C808   1.391       .  A
C803        H809   1.084       .  S
C804        C805   1.406       .  A
C805        C806   1.409       .  A
C805        H810   1.083   1_556  S
C806        C807   1.409       .  A
C806        H811   1.083       .  S
C807        C808   1.404       .  A
C808        H812   1.083       .  S
C813        C814   1.405       .  A
C813        C818   1.394       .  A
C813        H819   1.083       .  S
C814        C815   1.409       .  A
C815        C816   1.410       .  A
C815        H820   1.083       .  S
C816        C817   1.407       .  A
C816        H821   1.083       .  S
C817        C818   1.403       .  A
C818        H822   1.084       .  S
C823        C824   1.410       .  A
C823        C828   1.403       .  A
C823        H829   1.083       .  S
C824        C825   1.402       .  A
C825        C826   1.397       .  A
C825        H830   1.083       .  S
C826        C827   1.409       .  A
C826        H831   1.083       .  S
C827        C828   1.405       .  A
C828        H832   1.083       .  S
C833        C834   1.410       .  A
C833        C838   1.406       .  A
C833        H839   1.083       .  S
C834        C835   1.403       .  A
C835        C836   1.386       .  A
C835        H840   1.083       .  S
C836        C837   1.402       .  A
C836        H841   1.084       .  S
C837        C838   1.404       .  A
C838        H842   1.083       .  S
C843        C848   1.411       .  A
C843        H849   1.083       .  S
C845        C846   1.391   1_554  A
C846        C847   1.402       .  A
C846        H851   1.084   1_556  S
C847        C848   1.407       .  A
C848        H852   1.083       .  S
C853        C854   1.405       .  A
C853        C858   1.401       .  A
C853        H859   1.083       .  S
C854        C855   1.403       .  A
C855        C856   1.393       .  A
C855        H860   1.083       .  S
C856        C857   1.406       .  A
C856        H861   1.083       .  S
C857        C858   1.408       .  A
C858        H862   1.083       .  S
C863        C864   1.403       .  A
C863        C868   1.391       .  A
C863        H869   1.083       .  S
C864        C865   1.409       .  A
C865        C866   1.409   1_556  A
C865        H870   1.083       .  S
C866        C867   1.405       .  A
C867        C868   1.402   1_554  A
C868        H872   1.084       .  S
C873        C874   1.403       .  A
C873        C878   1.390       .  A
C873        H879   1.083       .  S
C874        C875   1.410       .  A
C875        C876   1.405       .  A
C875        H880   1.083       .  S
C876        C877   1.404       .  A
C876        H881   1.083       .  S
C877        C878   1.404       .  A
C878        H882   1.084       .  S
C883        C884   1.401       .  A
C883        C888   1.389       .  A
C883        H889   1.083       .  S
C884        C885   1.410       .  A
C885        C886   1.411       .  A
C885        H890   1.083       .  S
C886        C887   1.410       .  A
C886        H891   1.083       .  S
C887        C888   1.407       .  A
C888        H892   1.083       .  S
C893        C894   1.404       .  A
C893        C898   1.386       .  A
C893        H899   1.083       .  S
C894        C895   1.411       .  A
C895        C896   1.411       .  A
C895        H900   1.083       .  S
C896        C897   1.408       .  A
C896        H901   1.083       .  S
C897        C898   1.404       .  A
C898        H902   1.083       .  S
C903        C904   1.407       .  A
C903        C908   1.392       .  A
C903        H909   1.084       .  S
C904        C905   1.405       .  A
C905        H910   1.083       .  S
C906        C907   1.407       .  A
C906        H911   1.083       .  S
C908        H912   1.084       .  S
