geometry optimzed in LAMMPS
_audit_creation_date              2020-11-30 
_audit_creation_method            'lammps2cif' 
_symmetry_space_group_name_H-M    'P1' 
_symmetry_Int_Tables_number       1 
_symmetry_cell_setting            triclinic 
loop_ 
_symmetry_equiv_pos_as_xyz 
  x,y,z 
_cell_length_a                    34.89044665 
_cell_length_b                    34.22714190863748 
_cell_length_c                    34.3544594814669 
_cell_angle_alpha                 90.30875091634083 
_cell_angle_beta                  90.4929816390876 
_cell_angle_gamma                 89.8806410143779 
loop_ 
_atom_site_label 
_atom_site_type_symbol 
_atom_site_fract_x 
_atom_site_fract_y 
_atom_site_fract_z 
_atom_site_charge 
O1          O  0.48109769  0.47228163  0.05737488    -0.79900
O2          O  0.50163193  0.52218270  0.39846068    -0.79900
O3          O  0.44797073  0.47005184  0.47286431    -0.80000
O4          O  0.55080617  0.46886170  0.00798975    -0.79900
O5          O  0.43243014  0.51748707  0.43297952    -0.80000
O6          O  0.55491723  0.50558994  0.05830629    -0.79900
O7          O  0.52831990  0.47569942  0.43390446    -0.79900
O8          O  0.41902362  0.47928463  0.04488744    -0.80000
C9          C  0.44594745  0.46034306  0.06093393     1.09800
C10         C  0.51890266  0.48918415  0.40109854     1.09700
C11         C  0.43014182  0.48207017  0.44303511     1.09800
C12         C  0.56632635  0.47603747  0.04006242     1.09700
O13         O  0.52736267  0.57899656  0.03752036    -0.79900
O14         O  0.44584639  0.58874487  0.47700766    -0.80000
O15         O  0.45021405  0.54925412  0.06049963    -0.79900
O16         O  0.56023781  0.55188516  0.43011048    -0.79900
O17         O  0.51547803  0.59508262  0.44151867    -0.80000
O18         O  0.49928615  0.53757296  0.09941609    -0.79900
O19         O  0.57674946  0.55232717  0.00694241    -0.79900
O20         O  0.40972688  0.54076701  0.49643780    -0.80000
Co21       Co  0.50379095  0.52829369  0.04512727     1.51500
Co22       Co  0.47493269  0.55532590  0.44059634     1.51700
Co23       Co  0.45349725  0.50810525  0.51526341     1.51600
Co24       Co  0.55144625  0.51206785  0.97118979     1.51500
O25         O  0.49873791  0.52814023  0.98703303    -1.41900
C26         C  0.56161650  0.58083109  0.02597832     1.09700
C27         C  0.41368539  0.57649419  0.48811403     1.09800
C28         C  0.46632621  0.55189934  0.09433601     1.09700
C29         C  0.54546974  0.58510444  0.42405243     1.09700
O30         O  0.52193212  0.94573385  0.08387868    -0.79900
O31         O  0.54923457  0.03794343  0.46060993    -0.79900
O32         O  0.53240152  0.89529337  0.47054550    -0.80000
O33         O  0.55038643  0.03797134  0.03631525    -0.79900
O34         O  0.55500885  0.95367163  0.45418521    -0.80000
O35         O  0.51804423  0.02471599  0.08870091    -0.79900
O36         O  0.52150189  0.09130278  0.48345115    -0.79900
O37         O  0.55542949  0.94301860  0.03058786    -0.80000
C38         C  0.55319019  0.93786163  0.06689199     1.09800
C39         C  0.54496950  0.07548568  0.45974511     1.09700
C40         C  0.55628780  0.91593293  0.45165919     1.09800
C41         C  0.54812250  0.03786347  0.07307382     1.09700
O42         O  0.43880262  0.02228980  0.06322787    -0.79900
O43         O  0.47588717  0.95472901  0.42294432    -0.80000
O44         O  0.48340147  0.89965703  0.03954026    -0.79900
O45         O  0.45064541  0.05522509  0.48110937    -0.79900
O46         O  0.47172585  0.03115238  0.42778048    -0.80000
O47         O  0.44216923  0.94402210  0.05847304    -0.79900
O48         O  0.47536455  0.07237995  0.05075120    -0.79900
O49         O  0.45835369  0.92319042  0.47338051    -0.80000
Co50       Co  0.48054408  0.98444049  0.06921057     1.51500
Co51       Co  0.51075452  0.99368410  0.44910302     1.51700
Co52       Co  0.50722163  0.93581192  0.99950828     1.51600
Co53       Co  0.50128631  0.04439582  0.00610596     1.51500
O54         O  0.48868050  0.98874201  0.00988071    -1.41900
C55         C  0.44593790  0.05811389  0.06699688     1.09700
C56         C  0.45345445  0.93078862  0.43831054     1.09800
C57         C  0.45144146  0.90862847  0.05504296     1.09700
C58         C  0.44667711  0.05087099  0.44513736     1.09700
O59         O  0.92975270  0.53428714  0.03384545    -0.79900
O60         O  0.05614448  0.54931626  0.45991003    -0.79900
O61         O  0.04497267  0.50582626  0.08402026    -0.80000
O62         O  0.97448175  0.53962231  0.43610631    -0.79900
O63         O  0.05840695  0.54682085  0.03767274    -0.80000
O64         O  0.92088895  0.52254507  0.45895570    -0.79900
O65         O  0.03628713  0.51218391  0.41213934    -0.79900
O66         O  0.97704951  0.52980902  0.07451462    -0.80000
C67         C  0.94739690  0.54710720  0.06309527     1.09800
C68         C  0.05267332  0.54356276  0.42391787     1.09700
C69         C  0.06022916  0.53775179  0.07307740     1.09800
C70         C  0.93942583  0.54526458  0.43779974     1.09700
O71         O  0.94561212  0.44140901  0.46404800    -0.79900
O72         O  0.08108478  0.46577283  0.03490279    -0.80000
O73         O  0.98155179  0.45539849  0.09901668    -0.79900
O74         O  0.02293956  0.43619638  0.45039647    -0.79900
O75         O  0.07714868  0.46748230  0.45561126    -0.80000
O76         O  0.94018376  0.45035657  0.04923586    -0.79900
O77         O  0.96368739  0.46399040  0.40642918    -0.79900
O78         O  0.02901627  0.43181775  0.04168387    -0.80000
Co79       Co  0.94280390  0.48830688  0.00142116     1.51500
Co80       Co  0.06392219  0.50718526  0.99724566     1.51700
Co81       Co  0.00048532  0.48079364  0.05426744     1.51600
Co82       Co  0.99576330  0.48708785  0.44644223     1.51500
O83         O  0.00502052  0.50173961  0.00080068    -1.41900
C84         C  0.94274777  0.44104017  0.42644546     1.09700
C85         C  0.06490656  0.43486979  0.04633029     1.09800
C86         C  0.95115765  0.44082530  0.08423151     1.09700
C87         C  0.05853949  0.43768439  0.44427769     1.09700
C88         C  0.26267166  0.26682666  0.28992083     0.45700
H89         H  0.25861093  0.27161316  0.32147879    -0.03300
C90         C  0.26964987  0.25683541  0.21588425     0.45700
H91         H  0.27311858  0.25184536  0.18412735    -0.03300
C92         C  0.29232106  0.29443390  0.27123101    -0.17000
C93         C  0.27717543  0.22525479  0.27988021    -0.16800
C94         C  0.22514801  0.27518234  0.26694535    -0.17200
C95         C  0.29580282  0.28930675  0.23168333    -0.17200
C96         C  0.28050516  0.22056729  0.24002580    -0.16700
C97         C  0.22870324  0.26969376  0.22711316    -0.17000
C98         C  0.72434509  0.26653943  0.20936218     0.45700
H99         H  0.73477129  0.26079799  0.17961645    -0.03300
C100        C  0.70410878  0.28078579  0.28035921     0.45700
H101        H  0.69562141  0.28678195  0.31090639    -0.03300
C102        C  0.69509925  0.29997472  0.21264835    -0.17000
C103        C  0.70371516  0.23112185  0.22819326    -0.16800
C104        C  0.75796902  0.27990565  0.23570030    -0.17200
C105        C  0.68420139  0.30793172  0.25031850    -0.17200
C106        C  0.69392233  0.23901268  0.26666848    -0.16700
C107        C  0.74744307  0.28624813  0.27365939    -0.17000
C108        C  0.27271629  0.72536599  0.22673371     0.45700
H109        H  0.28311350  0.71580815  0.19810913    -0.03300
C110        C  0.24978029  0.74578927  0.29482004     0.45700
H111        H  0.23880404  0.75509713  0.32362950    -0.03300
C112        C  0.29788975  0.70823812  0.26039135    -0.17000
C113        C  0.27298097  0.77015299  0.23219958    -0.16800
C114        C  0.23175825  0.71227316  0.23471638    -0.17200
C115        C  0.28484142  0.71890579  0.29686319    -0.17200
C116        C  0.26453482  0.78070870  0.27041897    -0.16700
C117        C  0.21975458  0.72206634  0.27130989    -0.17000
C118        C  0.75172131  0.73115692  0.27617741     0.45700
H119        H  0.75250375  0.72067910  0.30611213    -0.03300
C120        C  0.75529600  0.75230003  0.20446431     0.45700
H121        H  0.75687773  0.76138188  0.17352573    -0.03300
C122        C  0.72379705  0.70868089  0.24914633    -0.17000
C123        C  0.73951333  0.77430816  0.27119359    -0.16800
C124        C  0.79163001  0.72487309  0.25835368    -0.17200
C125        C  0.72621426  0.71967633  0.21090906    -0.17200
C126        C  0.74140029  0.78529715  0.23212524    -0.16700
C127        C  0.79357579  0.73552553  0.21974828    -0.17000
C128        C  0.20736210  0.68927209  0.20681688    -0.11800
C129        C  0.22049217  0.65577137  0.18630585     0.03700
C130        C  0.19417365  0.63216521  0.16632371    -0.12300
C131        C  0.15517616  0.64159488  0.16527300     0.18600
C132        C  0.14242001  0.67623179  0.18293276    -0.09300
C133        C  0.16841475  0.69973968  0.20336459    -0.02300
H134        H  0.20415198  0.60606843  0.15151774     0.05100
C135        C  0.12888480  0.61623657  0.14300094     0.20600
H136        H  0.15794584  0.72599293  0.21749761     0.10300
C137        C  0.11008388  0.58521069  0.16130891    -0.15700
C138        C  0.08679474  0.55928826  0.13988153     0.03300
C139        C  0.08219915  0.56452036  0.09928449    -0.11000
C140        C  0.10090901  0.59638937  0.08167126    -0.01000
C141        C  0.12411262  0.62174323  0.10296645    -0.06200
H142        H  0.11410404  0.58080739  0.19223735     0.06300
H143        H  0.09836999  0.60150001  0.05068921     0.09700
Br144      Br  0.08983900  0.69242221  0.17979120    -0.05900
Br145      Br  0.27270849  0.63793978  0.18553849    -0.02800
Br146      Br  0.06301368  0.51761946  0.16787704     0.00000
Br147      Br  0.14981648  0.66289710  0.07582488    -0.04400
C148        C  0.06748178  0.57422251  0.39715620    -0.11800
C149        C  0.07773138  0.61217765  0.41095950     0.03700
C150        C  0.09512799  0.63889172  0.38616432    -0.12300
C151        C  0.10196483  0.62979784  0.34715939     0.18600
C152        C  0.08952637  0.59310965  0.33258713    -0.09300
C153        C  0.07311627  0.56561694  0.35760527    -0.02300
H154        H  0.10525304  0.66638114  0.39813266     0.05100
C155        C  0.12920532  0.65483235  0.32532678     0.20600
H156        H  0.06525755  0.53716725  0.34613264     0.10300
C157        C  0.16256077  0.63690627  0.31220381    -0.15700
C158        C  0.19148320  0.65808732  0.29476961     0.03300
C159        C  0.18877074  0.69915387  0.29092969    -0.11000
C160        C  0.15559938  0.71774989  0.30485384    -0.01000
C161        C  0.12573713  0.69592093  0.32167713    -0.06200
H162        H  0.16661636  0.60579152  0.31631084     0.06300
H163        H  0.15260083  0.74909964  0.30196966     0.09700
Br164      Br  0.09494897  0.57868312  0.27883213    -0.05900
Br165      Br  0.07032730  0.63073545  0.46340794    -0.02800
Br166      Br  0.23365382  0.62737799  0.27814319     0.00000
Br167      Br  0.08058153  0.72327317  0.33798330    -0.04400
C168        C  0.07802283  0.40754545  0.42001921    -0.11800
C169        C  0.06700157  0.40103015  0.38087061     0.03700
C170        C  0.08762177  0.37503613  0.35738979    -0.12300
C171        C  0.12080441  0.35635242  0.37120699     0.18600
C172        C  0.13294632  0.36398996  0.40989648    -0.09300
C173        C  0.11131252  0.38892469  0.43401899    -0.02300
H174        H  0.07889356  0.37105085  0.32728048     0.05100
C175        C  0.14466233  0.33382000  0.34291218     0.20600
H176        H  0.12134324  0.39499094  0.46336504     0.10300
C177        C  0.15854919  0.35318110  0.31009949    -0.15700
C178        C  0.18191476  0.33422679  0.28291325     0.03300
C179        C  0.19292725  0.29472851  0.28852167    -0.11000
C180        C  0.17760610  0.27496565  0.32070215    -0.01000
C181        C  0.15299324  0.29375121  0.34709329    -0.06200
H182        H  0.15162401  0.38376838  0.30592826     0.06300
H183        H  0.18522150  0.24466827  0.32556563     0.09700
Br184      Br  0.18089220  0.34471700  0.42981148    -0.05900
Br185      Br  0.02851443  0.43168478  0.35541124    -0.02800
Br186      Br  0.19824521  0.36587012  0.24068770     0.00000
Br187      Br  0.13023589  0.26311856  0.38728805    -0.04400
C188        C  0.08768022  0.40567178  0.06951530    -0.11800
C189        C  0.12012534  0.41725943  0.09200073     0.03700
C190        C  0.13993583  0.39012537  0.11489046    -0.12300
C191        C  0.12988083  0.35049716  0.11548406     0.18600
C192        C  0.09740893  0.33863796  0.09344045    -0.09300
C193        C  0.07650863  0.36615368  0.07112898    -0.02300
H194        H  0.16385787  0.40022748  0.13256085     0.05100
C195        C  0.15418513  0.32339699  0.13975594     0.20600
H196        H  0.05175059  0.35645240  0.05450212     0.10300
C197        C  0.13804988  0.30064955  0.16953657    -0.15700
C198        C  0.16133148  0.28017526  0.19644610     0.03300
C199        C  0.20164513  0.28448266  0.19582474    -0.11000
C200        C  0.21746663  0.30525729  0.16448617    -0.01000
C201        C  0.19450410  0.32349677  0.13638533    -0.06200
H202        H  0.10722439  0.29929845  0.17242683     0.06300
H203        H  0.24813391  0.30888880  0.16223554     0.09700
Br204      Br  0.08118535  0.28518511  0.09144079    -0.05900
Br205      Br  0.13906548  0.46994161  0.09513246    -0.02800
Br206      Br  0.13668259  0.24476799  0.23118106     0.00000
Br207      Br  0.22033443  0.34810779  0.09381809    -0.04400
C208        C  0.92656485  0.41422138  0.10779083    -0.11800
C209        C  0.90364570  0.38451747  0.09079022     0.03700
C210        C  0.87753510  0.36350430  0.11356368    -0.12300
C211        C  0.87393376  0.37064000  0.15373601     0.18600
C212        C  0.89851794  0.39874569  0.17106498    -0.09300
C213        C  0.92405220  0.42027434  0.14818423    -0.02300
H214        H  0.85992650  0.34130531  0.09974637     0.05100
C215        C  0.84538502  0.34755526  0.17673712     0.20600
H216        H  0.94168656  0.44239116  0.16210768     0.10300
C217        C  0.84615380  0.30636155  0.17531265    -0.15700
C218        C  0.81870756  0.28377289  0.19489026     0.03300
C219        C  0.79061166  0.30204812  0.21790874    -0.11000
C220        C  0.79016242  0.34310460  0.21968219    -0.01000
C221        C  0.81592327  0.36574814  0.19831693    -0.06200
H222        H  0.86786965  0.29161466  0.15819106     0.06300
H223        H  0.76768429  0.35780905  0.23583491     0.09700
Br224      Br  0.90002772  0.40816552  0.22605564    -0.05900
Br225      Br  0.90877820  0.36899728  0.03735111    -0.02800
Br226      Br  0.82022323  0.22810662  0.18910427     0.00000
Br227      Br  0.80593364  0.42086762  0.19544330    -0.04400
C228        C  0.91626342  0.41254069  0.40749806    -0.11800
C229        C  0.88010245  0.40434618  0.42375160     0.03700
C230        C  0.85550242  0.37745798  0.40569719    -0.12300
C231        C  0.86521562  0.35894267  0.37052587     0.18600
C232        C  0.90139407  0.36709162  0.35420289    -0.09300
C233        C  0.92643788  0.39351371  0.37276202    -0.02300
H234        H  0.82755930  0.37245818  0.41824416     0.05100
C235        C  0.83448461  0.33741129  0.34873292     0.20600
H236        H  0.95372721  0.39953992  0.35957476     0.10300
C237        C  0.79963383  0.35681184  0.34226653    -0.15700
C238        C  0.76962089  0.33928311  0.32159270     0.03300
C239        C  0.77492330  0.30253681  0.30346980    -0.11000
C240        C  0.80919538  0.28214729  0.31144649    -0.01000
C241        C  0.83803640  0.29850148  0.33534691    -0.06200
H242        H  0.79554956  0.38608381  0.35371847     0.06300
H243        H  0.81324723  0.25308529  0.29949910     0.09700
Br244      Br  0.91736273  0.34550092  0.30534678    -0.05900
Br245      Br  0.86019856  0.43256938  0.46770087    -0.02800
Br246      Br  0.72293773  0.36807729  0.32061221     0.00000
Br247      Br  0.87945455  0.26543255  0.35191160    -0.04400
C248        C  0.82101325  0.70313938  0.28218565    -0.11800
C249        C  0.83105276  0.66353016  0.27551053     0.03700
C250        C  0.85092767  0.64242078  0.30404789    -0.12300
C251        C  0.86157441  0.65936093  0.33973575     0.18600
C252        C  0.85355231  0.69927342  0.34586365    -0.09300
C253        C  0.83304327  0.72049129  0.31753476    -0.02300
H254        H  0.85740581  0.61187807  0.29869053     0.05100
C255        C  0.88284497  0.63452249  0.36831704     0.20600
H256        H  0.82555637  0.75065624  0.32355651     0.10300
C257        C  0.91736245  0.61768044  0.35625469    -0.15700
C258        C  0.93568253  0.58871340  0.37809707     0.03300
C259        C  0.92061108  0.57671077  0.41425570    -0.11000
C260        C  0.88627140  0.59418128  0.42689313    -0.01000
C261        C  0.86714120  0.62242453  0.40409797    -0.06200
H262        H  0.92907533  0.62559159  0.32826137     0.06300
H263        H  0.87372630  0.58514385  0.45412914     0.09700
Br264      Br  0.87078714  0.72631415  0.39176111    -0.05900
Br265      Br  0.81605979  0.63383904  0.23075565    -0.02800
Br266      Br  0.97769658  0.56312831  0.35317058     0.00000
Br267      Br  0.81821295  0.64087088  0.42151653    -0.04400
C268        C  0.82162075  0.71875693  0.19118596    -0.11800
C269        C  0.86177652  0.72165043  0.19533450     0.03700
C270        C  0.88590648  0.69920065  0.17122406    -0.12300
C271        C  0.87063775  0.67393286  0.14254865     0.18600
C272        C  0.83059611  0.67279790  0.13712128    -0.09300
C273        C  0.80687487  0.69589805  0.16031419    -0.02300
H274        H  0.91666577  0.70068179  0.17553570     0.05100
C275        C  0.89583345  0.64554524  0.12186186     0.20600
H276        H  0.77631255  0.69291563  0.15617638     0.10300
C277        C  0.91403819  0.61609100  0.14352067    -0.15700
C278        C  0.93253579  0.58470975  0.12508921     0.03300
C279        C  0.93272086  0.58213068  0.08399738    -0.11000
C280        C  0.91629390  0.61274820  0.06238615    -0.01000
C281        C  0.89856894  0.64453173  0.08089730    -0.06200
H282        H  0.91220967  0.61648415  0.17499252     0.06300
H283        H  0.91689618  0.61175715  0.03086022     0.09700
Br284      Br  0.80596956  0.63583945  0.10282495    -0.05900
Br285      Br  0.88483028  0.75657079  0.23241584    -0.02800
Br286      Br  0.95344816  0.54451630  0.15779955     0.00000
Br287      Br  0.87832959  0.68564964  0.04892620    -0.04400
C288        C  0.56893187  0.09947904  0.43295225    -0.11800
C289        C  0.58612811  0.08305213  0.39923646     0.03700
C290        C  0.60734090  0.10655779  0.37406280    -0.12300
C291        C  0.61176716  0.14660653  0.38096589     0.18600
C292        C  0.59429254  0.16338448  0.41392623    -0.09300
C293        C  0.57327632  0.13991536  0.43960429    -0.02300
H294        H  0.61994563  0.09357225  0.34832213     0.05100
C295        C  0.63304524  0.17032509  0.35207366     0.20600
H296        H  0.56001319  0.15348533  0.46467103     0.10300
C297        C  0.61417235  0.18248280  0.31807104    -0.15700
C298        C  0.63348365  0.20353184  0.28933306     0.03300
C299        C  0.67268370  0.21297166  0.29410817    -0.11000
C300        C  0.69152219  0.20061959  0.32828073    -0.01000
C301        C  0.67224042  0.17905329  0.35679316    -0.06200
H302        H  0.58413714  0.17551428  0.31386729     0.06300
H303        H  0.72147067  0.20777044  0.33277666     0.09700
Br304      Br  0.59738919  0.21842785  0.42413690    -0.05900
Br305      Br  0.57987929  0.02945908  0.38330052    -0.02800
Br306      Br  0.60413542  0.21885994  0.24496821     0.00000
Br307      Br  0.70054609  0.16138819  0.40142305    -0.04400
C308        C  0.69031625  0.19539077  0.20480228    -0.11800
C309        C  0.67812474  0.19704700  0.16488865     0.03700
C310        C  0.66079328  0.16480678  0.14684472    -0.12300
C311        C  0.65411490  0.13019090  0.16668388     0.18600
C312        C  0.66823203  0.12678490  0.20507052    -0.09300
C313        C  0.68679936  0.15870156  0.22331726    -0.02300
H314        H  0.65043234  0.16743522  0.11712029     0.05100
C315        C  0.62939047  0.10035030  0.14689025     0.20600
H316        H  0.69771214  0.15479446  0.25256632     0.10300
C317        C  0.64208894  0.08195425  0.11253771    -0.15700
C318        C  0.61679710  0.06040601  0.08850597     0.03300
C319        C  0.57775032  0.05697583  0.09856110    -0.11000
C320        C  0.56566031  0.07412252  0.13378480    -0.01000
C321        C  0.59071377  0.09594515  0.15740055    -0.06200
H322        H  0.67158453  0.08556294  0.10364734     0.06300
H323        H  0.53584463  0.07236182  0.14215783     0.09700
Br324      Br  0.66224978  0.07935265  0.23377988    -0.05900
Br325      Br  0.67994691  0.24104890  0.13082308    -0.02800
Br326      Br  0.63728769  0.03620925  0.04267530     0.00000
Br327      Br  0.56941819  0.12283751  0.20137946    -0.04400
C328        C  0.42056770  0.08142569  0.09205341    -0.11800
C329        C  0.40828590  0.06614341  0.12797863     0.03700
C330        C  0.38167412  0.08654276  0.15016570    -0.12300
C331        C  0.36673675  0.12216294  0.13738558     0.18600
C332        C  0.37898413  0.13778902  0.10170279    -0.09300
C333        C  0.40602192  0.11745328  0.07935590    -0.02300
H334        H  0.37321229  0.07500716  0.17812131     0.05100
C335        C  0.34305539  0.14465860  0.16479280     0.20600
H336        H  0.41504646  0.12932158  0.05175514     0.10300
C337        C  0.36134374  0.16079750  0.19738225    -0.15700
C338        C  0.34107992  0.18286317  0.22441650     0.03300
C339        C  0.30125587  0.18887506  0.21932407    -0.11000
C340        C  0.28262756  0.17096640  0.18746935    -0.01000
C341        C  0.30319072  0.14884922  0.16030187    -0.06200
H342        H  0.39200378  0.15705885  0.20118948     0.06300
H343        H  0.25223381  0.17573437  0.18276990     0.09700
Br344      Br  0.36004873  0.18682754  0.08281875    -0.05900
Br345      Br  0.42854744  0.01869957  0.14979814    -0.02800
Br346      Br  0.37122314  0.20617700  0.26485498     0.00000
Br347      Br  0.27601709  0.12560084  0.11737250    -0.04400
C348        C  0.29232358  0.19597483  0.30989243    -0.11800
C349        C  0.31366823  0.20684949  0.34401000     0.03700
C350        C  0.33331644  0.17861833  0.36599262    -0.12300
C351        C  0.33300560  0.13914141  0.35566826     0.18600
C352        C  0.30958394  0.12740025  0.32410610    -0.09300
C353        C  0.28927162  0.15545091  0.30203551    -0.02300
H354        H  0.35079843  0.18789625  0.39058920     0.05100
C355        C  0.35942512  0.11197537  0.37710820     0.20600
H356        H  0.27208062  0.14546277  0.27758115     0.10300
C357        C  0.35278691  0.10333181  0.41646805    -0.15700
C358        C  0.37987869  0.08255923  0.43901846     0.03300
C359        C  0.41499961  0.07029686  0.42243407    -0.11000
C360        C  0.42088910  0.07807978  0.38269587    -0.01000
C361        C  0.39390478  0.09883495  0.36033547    -0.06200
H362        H  0.32657270  0.11340354  0.42994031     0.06300
H363        H  0.44746496  0.06928535  0.36908860     0.09700
Br364      Br  0.30505046  0.07339431  0.30982712    -0.05900
Br365      Br  0.32252339  0.25891019  0.36235092    -0.02800
Br366      Br  0.36646132  0.07106773  0.49176995     0.00000
Br367      Br  0.40710580  0.11119735  0.30774132    -0.04400
C368        C  0.58552983  0.92067488  0.09008619    -0.11800
C369        C  0.60786861  0.88879637  0.07667844     0.03700
C370        C  0.63516676  0.87123254  0.10133743    -0.12300
C371        C  0.64015858  0.88376700  0.13998061     0.18600
C372        C  0.61859133  0.91596341  0.15324171    -0.09300
C373        C  0.59170412  0.93402526  0.12847893    -0.02300
H374        H  0.65144161  0.84641611  0.09081264     0.05100
C375        C  0.66638495  0.86154114  0.16641547     0.20600
H376        H  0.57500150  0.95831473  0.13957059     0.10300
C377        C  0.70618549  0.86275279  0.16070197    -0.15700
C378        C  0.73132004  0.84031769  0.18376160     0.03300
C379        C  0.71691828  0.81622641  0.21351626    -0.11000
C380        C  0.67708978  0.81563031  0.21950900    -0.01000
C381        C  0.65197957  0.83750212  0.19611617    -0.06200
H382        H  0.71769797  0.88069329  0.13772222     0.06300
H383        H  0.66516456  0.79619796  0.24095332     0.09700
Br384      Br  0.62482630  0.93606160  0.20513505    -0.05900
Br385      Br  0.59940847  0.86413294  0.02725447    -0.02800
Br386      Br  0.78511063  0.84269457  0.17280906     0.00000
Br387      Br  0.59799675  0.83037925  0.20337745    -0.04400
C388        C  0.58681514  0.89729385  0.42803004    -0.11800
C389        C  0.62575923  0.90834034  0.43130192     0.03700
C390        C  0.65319399  0.89191413  0.40624550    -0.12300
C391        C  0.64239263  0.86512771  0.37706033     0.18600
C392        C  0.60339695  0.85455525  0.37359247    -0.09300
C393        C  0.57619571  0.87025392  0.39911326    -0.02300
H394        H  0.68311220  0.89954821  0.40997597     0.05100
C395        C  0.67201423  0.84438893  0.35359369     0.20600
H396        H  0.54636980  0.86210541  0.39563081     0.10300
C397        C  0.67708792  0.80470284  0.36014888    -0.15700
C398        C  0.69991723  0.78136296  0.33616128     0.03300
C399        C  0.71925346  0.79790688  0.30327151    -0.11000
C400        C  0.71733395  0.83918037  0.30006198    -0.01000
C401        C  0.69357801  0.86211307  0.32419096    -0.06200
H402        H  0.66166242  0.79138313  0.38392897     0.06300
H403        H  0.73350596  0.85390631  0.27781366     0.09700
Br404      Br  0.58576122  0.81935364  0.33358350    -0.05900
Br405      Br  0.64329716  0.94408072  0.47081459    -0.02800
Br406      Br  0.69950568  0.72843688  0.35419120     0.00000
Br407      Br  0.68980114  0.91708766  0.31465429    -0.04400
C408        C  0.28892634  0.80936385  0.29300580    -0.11800
C409        C  0.27376964  0.83367241  0.32250724     0.03700
C410        C  0.29845357  0.85587766  0.34657608    -0.12300
C411        C  0.33837375  0.85465820  0.34151027     0.18600
C412        C  0.35345093  0.83117768  0.31167014    -0.09300
C413        C  0.32909396  0.80798474  0.28880010    -0.02300
H414        H  0.28650947  0.87379775  0.36957481     0.05100
C415        C  0.36459842  0.87592385  0.36857629     0.20600
H416        H  0.34171316  0.78884616  0.26720503     0.10300
C417        C  0.38255046  0.85518916  0.39878750    -0.15700
C418        C  0.41120168  0.87248289  0.42196367     0.03300
C419        C  0.42236686  0.91160184  0.41525599    -0.11000
C420        C  0.40389320  0.93247097  0.38528398    -0.01000
C421        C  0.37527455  0.91498645  0.36210352    -0.06200
H422        H  0.37518244  0.82482826  0.40341999     0.06300
H423        H  0.41193709  0.96246691  0.37965365     0.09700
Br424      Br  0.40739449  0.83009076  0.30107364    -0.05900
Br425      Br  0.21968003  0.83716094  0.33133280    -0.02800
Br426      Br  0.43633439  0.83974079  0.45965840     0.00000
Br427      Br  0.35270534  0.94484394  0.32076713    -0.04400
C428        C  0.42437983  0.87964621  0.07073384    -0.11800
C429        C  0.38503146  0.88230049  0.06097704     0.03700
C430        C  0.35753683  0.86436676  0.08430111    -0.12300
C431        C  0.36848888  0.84408347  0.11791000     0.18600
C432        C  0.40786673  0.83903546  0.12622975    -0.09300
C433        C  0.43551804  0.85667194  0.10261202    -0.02300
H434        H  0.32741047  0.86791374  0.07726542     0.05100
C435        C  0.33860710  0.82996311  0.14491883     0.20600
H436        H  0.46549067  0.85487174  0.11089993     0.10300
C437        C  0.31501799  0.79875765  0.13401185    -0.15700
C438        C  0.28890274  0.78294726  0.16038433     0.03300
C439        C  0.28858246  0.79594782  0.19983545    -0.11000
C440        C  0.30611267  0.83240205  0.20725939    -0.01000
C441        C  0.33172847  0.84876100  0.18070398    -0.06200
H442        H  0.31655994  0.78698434  0.10472573     0.06300
H443        H  0.30081313  0.84857006  0.23357350     0.09700
Br444      Br  0.42488654  0.81003581  0.17080764    -0.05900
Br445      Br  0.36726567  0.91236204  0.01731779    -0.02800
Br446      Br  0.24978487  0.74999689  0.13806678     0.00000
Br447      Br  0.35638394  0.89705621  0.19433597    -0.04400
C448        C  0.38015839  0.60182803  0.48345030    -0.11800
C449        C  0.38298409  0.64249368  0.48887419     0.03700
C450        C  0.35833510  0.66718157  0.46835335    -0.12300
C451        C  0.33148974  0.65160099  0.44195909     0.18600
C452        C  0.32516744  0.61085410  0.44102394    -0.09300
C453        C  0.34894620  0.58639190  0.46270118    -0.02300
H454        H  0.36294461  0.69845635  0.46969290     0.05100
C455        C  0.31900516  0.67595426  0.40907620     0.20600
H456        H  0.34640783  0.55508468  0.45859568     0.10300
C457        C  0.34720932  0.69029037  0.38402660    -0.15700
C458        C  0.33739911  0.70648035  0.34810147     0.03300
C459        C  0.29864618  0.70622156  0.33583470    -0.11000
C460        C  0.27045383  0.69469730  0.36264678    -0.01000
C461        C  0.28028330  0.68096302  0.39943166    -0.06200
H462        H  0.37724642  0.68765234  0.39192564     0.06300
H463        H  0.24035865  0.69561242  0.35492322     0.09700
Br464      Br  0.29063346  0.58590497  0.40480767    -0.05900
Br465      Br  0.42247421  0.66559706  0.52049788    -0.02800
Br466      Br  0.37861232  0.72781970  0.31864832     0.00000
Br467      Br  0.24008864  0.66953988  0.43544694    -0.04400
C468        C  0.33378190  0.68670629  0.24984947    -0.11800
C469        C  0.34480832  0.64902305  0.26332151     0.03700
C470        C  0.37305700  0.62806270  0.24345476    -0.12300
C471        C  0.39051610  0.64350494  0.21054943     0.18600
C472        C  0.38213126  0.68176606  0.19905643    -0.09300
C473        C  0.35504335  0.70336210  0.21944455    -0.02300
H474        H  0.37980015  0.59843795  0.25222168     0.05100
C475        C  0.41127098  0.61721401  0.18431060     0.20600
H476        H  0.34845321  0.73254999  0.20931215     0.10300
C477        C  0.38951082  0.59340059  0.15947523    -0.15700
C478        C  0.40697872  0.57130338  0.13051308     0.03300
C479        C  0.44713396  0.57293619  0.12610139    -0.11000
C480        C  0.46912675  0.59532295  0.15244235    -0.01000
C481        C  0.45137756  0.61763990  0.18138057    -0.06200
H482        H  0.35857557  0.59277817  0.16208517     0.06300
H483        H  0.50002031  0.59641457  0.14977455     0.09700
Br484      Br  0.40272725  0.70358505  0.15232849    -0.05900
Br485      Br  0.32331399  0.62172468  0.30628592    -0.02800
Br486      Br  0.37412649  0.53872331  0.09923095     0.00000
Br487      Br  0.48248561  0.64885426  0.21567243    -0.04400
C488        C  0.55908104  0.60723332  0.39046456    -0.11800
C489        C  0.56471766  0.64789573  0.39093806     0.03700
C490        C  0.58319734  0.66549261  0.35953784    -0.12300
C491        C  0.59527819  0.64291034  0.32759961     0.18600
C492        C  0.58555201  0.60320532  0.32539159    -0.09300
C493        C  0.56777259  0.58571159  0.35674356    -0.02300
H494        H  0.59091546  0.69608624  0.36146265     0.05100
C495        C  0.62628788  0.65771202  0.30326489     0.20600
H496        H  0.56203431  0.55469791  0.35528144     0.10300
C497        C  0.66271264  0.64147934  0.30920052    -0.15700
C498        C  0.69460064  0.65661016  0.29077142     0.03300
C499        C  0.69022673  0.68819015  0.26506020    -0.11000
C500        C  0.65337250  0.70360148  0.25798637    -0.01000
C501        C  0.62145969  0.68885933  0.27727946    -0.06200
H502        H  0.66659275  0.61787513  0.32978520     0.06300
H503        H  0.64961304  0.72824558  0.23873102     0.09700
Br504      Br  0.59948522  0.57086643  0.28181943    -0.05900
Br505      Br  0.55181936  0.67953607  0.43515493    -0.02800
Br506      Br  0.74318727  0.63439344  0.30452335     0.00000
Br507      Br  0.57237002  0.71252072  0.26814944    -0.04400
C508        C  0.58543817  0.61414022  0.03934862    -0.11800
C509        C  0.57044023  0.64469592  0.06294653     0.03700
C510        C  0.59539841  0.66861803  0.08406213    -0.12300
C511        C  0.63500762  0.66352625  0.08150371     0.18600
C512        C  0.64994315  0.63705222  0.05408123    -0.09300
C513        C  0.62518941  0.61258652  0.03323313    -0.02300
H514        H  0.58376876  0.68932559  0.10483917     0.05100
C515        C  0.65918226  0.67907740  0.11321166     0.20600
H516        H  0.63741279  0.59051496  0.01432286     0.10300
C517        C  0.67606125  0.65217066  0.13861756    -0.15700
C518        C  0.69746814  0.66450984  0.17067330     0.03300
C519        C  0.70169259  0.70481303  0.17846910    -0.11000
C520        C  0.68446968  0.73181202  0.15292867    -0.01000
C521        C  0.66310971  0.71925420  0.12061992    -0.06200
H522        H  0.67261401  0.62111637  0.13331033     0.06300
H523        H  0.68770892  0.76282503  0.15786540     0.09700
Br524      Br  0.70408749  0.63126509  0.04656041    -0.05900
Br525      Br  0.51675296  0.65468509  0.07065190    -0.02800
Br526      Br  0.72214375  0.62417942  0.19987049     0.00000
Br527      Br  0.64078102  0.75772083  0.08692729    -0.04400
C528        C  0.53754368  0.47065655  0.36725624    -0.11800
C529        C  0.51841705  0.44623501  0.34037706     0.03700
C530        C  0.53974816  0.42209801  0.31528974    -0.12300
C531        C  0.58008034  0.42163835  0.31704232     0.18600
C532        C  0.59897965  0.44786208  0.34245458    -0.09300
C533        C  0.57772253  0.47195151  0.36699478    -0.02300
H534        H  0.52485835  0.40234491  0.29563128     0.05100
C535        C  0.60228574  0.39183856  0.29504454     0.20600
H536        H  0.59286106  0.49027164  0.38784603     0.10300
C537        C  0.62935086  0.40398938  0.26776446    -0.15700
C538        C  0.65617104  0.37780464  0.25223776     0.03300
C539        C  0.65502555  0.33769781  0.26262228    -0.11000
C540        C  0.62647809  0.32545433  0.28844996    -0.01000
C541        C  0.60053743  0.35196119  0.30478674    -0.06200
H542        H  0.63141244  0.43473659  0.26071150     0.06300
H543        H  0.62503878  0.29507903  0.29698417     0.09700
Br544      Br  0.65375175  0.44930377  0.34829023    -0.05900
Br545      Br  0.46379997  0.44263257  0.33884508    -0.01900
Br546      Br  0.69702050  0.40126104  0.22366340     0.00000
Br547      Br  0.56563041  0.33256193  0.34292930    -0.04400
C548        C  0.59740670  0.45088493  0.05447542    -0.11800
C549        C  0.62371319  0.46314995  0.08352214     0.03700
C550        C  0.64928533  0.43608967  0.09928580    -0.12300
C551        C  0.64917294  0.39727043  0.08630128     0.18600
C552        C  0.62638551  0.38630178  0.05429305    -0.09300
C553        C  0.60069533  0.41309904  0.03856056    -0.02300
H554        H  0.66702748  0.44451248  0.12398917     0.05100
C555        C  0.66225248  0.36767864  0.11372254     0.20600
H556        H  0.58176056  0.40352880  0.01524681     0.10300
C557        C  0.63399527  0.34955138  0.13575249    -0.15700
C558        C  0.64371780  0.32666881  0.16748007     0.03300
C559        C  0.68262787  0.32167128  0.17769187    -0.11000
C560        C  0.71101348  0.33725123  0.15335910    -0.01000
C561        C  0.70106186  0.36104818  0.12202387    -0.06200
H562        H  0.60397180  0.35443482  0.12895117     0.06300
H563        H  0.74096499  0.33239862  0.15962229     0.09700
Br564      Br  0.62667940  0.33389447  0.03412256    -0.05900
Br565      Br  0.62601568  0.51559149  0.10372202    -0.02800
Br566      Br  0.60208561  0.30198094  0.19317299     0.00000
Br567      Br  0.74091195  0.38488115  0.09237805    -0.04400
C568        C  0.40447379  0.45584207  0.42125622    -0.11800
C569        C  0.38132820  0.46921851  0.38978971     0.03700
C570        C  0.36008306  0.44249262  0.36822009    -0.12300
C571        C  0.36055024  0.40304039  0.37780549     0.18600
C572        C  0.38108708  0.38987701  0.41044307    -0.09300
C573        C  0.40304714  0.41626863  0.43190235    -0.02300
H574        H  0.34392195  0.45231613  0.34299993     0.05100
C575        C  0.34298908  0.37577217  0.35056071     0.20600
H576        H  0.41953522  0.40555524  0.45649950     0.10300
C577        C  0.36693047  0.35519200  0.32542802    -0.15700
C578        C  0.35177339  0.32963800  0.29781429     0.03300
C579        C  0.31150646  0.32454326  0.29538187    -0.11000
C580        C  0.28774871  0.34657241  0.32009655    -0.01000
C581        C  0.30318650  0.37221517  0.34742479    -0.06200
H582        H  0.39773555  0.35894201  0.32760497     0.06300
H583        H  0.25692205  0.34353307  0.31845763     0.09700
Br584      Br  0.37997775  0.33627294  0.42641268    -0.05900
Br585      Br  0.37720531  0.52260887  0.37274014    -0.02800
Br586      Br  0.38902200  0.30219470  0.26769883     0.00000
Br587      Br  0.26913522  0.40108997  0.38038931    -0.04400
C588        C  0.43589433  0.42449373  0.08208034    -0.11800
C589        C  0.44980607  0.41675080  0.11991865     0.03700
C590        C  0.43181459  0.38830955  0.14252474    -0.12300
C591        C  0.40008083  0.36756449  0.12794871     0.18600
C592        C  0.38787484  0.37351391  0.08935055    -0.09300
C593        C  0.40602219  0.40149208  0.06668102    -0.02300
H594        H  0.44078884  0.38436546  0.17252753     0.05100
C595        C  0.37519533  0.34673918  0.15531658     0.20600
H596        H  0.39490963  0.40723939  0.03770012     0.10300
C597        C  0.35086261  0.36918233  0.17853254    -0.15700
C598        C  0.32446224  0.35168493  0.20311736     0.03300
C599        C  0.32234002  0.31047377  0.20528567    -0.11000
C600        C  0.34651987  0.28801322  0.18120638    -0.01000
C601        C  0.37309502  0.30584000  0.15669313    -0.06200
H602        H  0.35182837  0.40076758  0.17673007     0.06300
H603        H  0.34548020  0.25645024  0.18219915     0.09700
Br604      Br  0.34326752  0.34811130  0.06813454    -0.05900
Br605      Br  0.48913918  0.44770967  0.14422382    -0.02800
Br606      Br  0.29126235  0.38687188  0.22987359     0.00000
Br607      Br  0.40658065  0.27367571  0.12631289    -0.04400
O608        O  0.48111679  0.47229711  0.55742506    -0.79900
O609        O  0.50162859  0.52217486  0.89842839    -0.79900
O610        O  0.44797196  0.47003894  0.97281230    -0.80000
O611        O  0.55083578  0.46885180  0.50801207    -0.79900
O612        O  0.43241882  0.51747299  0.93293295    -0.80000
O613        O  0.55494598  0.50558434  0.55832869    -0.79900
O614        O  0.52831548  0.47570286  0.93388660    -0.79900
O615        O  0.41904251  0.47931545  0.54494784    -0.80000
C616        C  0.44596373  0.46036962  0.56099475     1.09800
C617        C  0.51890075  0.48917774  0.90107655     1.09700
C618        C  0.43013482  0.48205641  0.94298779     1.09800
C619        C  0.56636205  0.47603619  0.54008140     1.09700
O620        O  0.52740743  0.57899445  0.53753258    -0.79900
O621        O  0.44579678  0.58873480  0.97695071    -0.80000
O622        O  0.45025481  0.54928088  0.56053442    -0.79900
O623        O  0.56022467  0.55189312  0.93009295    -0.79900
O624        O  0.51545118  0.59508738  0.94146839    -0.80000
O625        O  0.49932941  0.53759520  0.59944564    -0.79900
O626        O  0.57678223  0.55230369  0.50695321    -0.79900
O627        O  0.40970492  0.54073481  0.99639124    -0.80000
Co628      Co  0.50382310  0.52829963  0.54515774     1.51500
Co629      Co  0.47491133  0.55531985  0.94055205     1.51700
Co630      Co  0.45347926  0.50808835  0.01521925     1.51600
Co631      Co  0.55146528  0.51205563  0.47120698     1.51500
O632        O  0.49876027  0.52813297  0.48706515    -1.41900
C633        C  0.56166151  0.58081328  0.52598868     1.09700
C634        C  0.41364382  0.57646278  0.98806438     1.09800
C635        C  0.46637105  0.55192695  0.59436814     1.09700
C636        C  0.54545487  0.58510869  0.92402015     1.09700
O637        O  0.52196915  0.94574273  0.58389249    -0.79900
O638        O  0.54920976  0.03793502  0.96057672    -0.79900
O639        O  0.53239755  0.89528601  0.97053247    -0.80000
O640        O  0.55039582  0.03797699  0.53632526    -0.79900
O641        O  0.55497934  0.95366994  0.95415928    -0.80000
O642        O  0.51807013  0.02472491  0.58871942    -0.79900
O643        O  0.52149980  0.09129948  0.98343369    -0.79900
O644        O  0.55544511  0.94303032  0.53058665    -0.80000
C645        C  0.55321901  0.93787233  0.56689055     1.09800
C646        C  0.54495289  0.07547854  0.95971524     1.09700
C647        C  0.55627064  0.91593224  0.95163374     1.09800
C648        C  0.54814739  0.03786474  0.57308377     1.09700
O649        O  0.43882025  0.02228598  0.56326801    -0.79900
O650        O  0.47584440  0.95472117  0.92293138    -0.80000
O651        O  0.48343144  0.89966313  0.53955034    -0.79900
O652        O  0.45063956  0.05523458  0.98109864    -0.79900
O653        O  0.47168991  0.03114571  0.92776456    -0.80000
O654        O  0.44219870  0.94401704  0.55850756    -0.79900
O655        O  0.47536876  0.07238140  0.55076742    -0.79900
O656        O  0.45834123  0.92317312  0.97337178    -0.80000
Co657      Co  0.48057125  0.98444311  0.56923614     1.51500
Co658      Co  0.51072280  0.99367750  0.94907780     1.51700
Co659      Co  0.50723387  0.93582305  0.49951631     1.51600
Co660      Co  0.50129204  0.04439792  0.50612161     1.51500
O661        O  0.48869402  0.98874664  0.50990183    -1.41900
C662        C  0.44594603  0.05811421  0.56701989     1.09700
C663        C  0.45342141  0.93077582  0.93830578     1.09800
C664        C  0.45147653  0.90862582  0.55506589     1.09700
C665        C  0.44665591  0.05087678  0.94512903     1.09700
O666        O  0.92976842  0.53422884  0.53384005    -0.79900
O667        O  0.05613548  0.54932646  0.95993156    -0.79900
O668        O  0.04501443  0.50579756  0.58398538    -0.80000
O669        O  0.97447854  0.53966792  0.93614464    -0.79900
O670        O  0.05841528  0.54680216  0.53764123    -0.80000
O671        O  0.92087422  0.52259095  0.95896580    -0.79900
O672        O  0.03627448  0.51219097  0.91216679    -0.79900
O673        O  0.97708697  0.52978314  0.57448790    -0.80000
C674        C  0.94742048  0.54706382  0.56307971     1.09800
C675        C  0.05267433  0.54356368  0.92393951     1.09700
C676        C  0.06026012  0.53772761  0.57304159     1.09800
C677        C  0.93942134  0.54531061  0.93782064     1.09700
O678        O  0.94556907  0.44145744  0.96407316    -0.79900
O679        O  0.08111215  0.46575117  0.53486115    -0.80000
O680        O  0.98160211  0.45537214  0.59899045    -0.79900
O681        O  0.02289436  0.43621621  0.95041921    -0.79900
O682        O  0.07711749  0.46747614  0.95564690    -0.80000
O683        O  0.94023368  0.45029435  0.54921345    -0.79900
O684        O  0.96365179  0.46404357  0.90645905    -0.79900
O685        O  0.02904419  0.43179446  0.54163914    -0.80000
Co686      Co  0.94283280  0.48825643  0.50140306     1.51500
Co687      Co  0.06394251  0.50717328  0.49721441     1.51700
Co688      Co  0.00052038  0.48076934  0.55423687     1.51600
Co689      Co  0.99573964  0.48712166  0.94647203     1.51500
O690        O  0.00504280  0.50171510  0.50076936    -1.41900
C691        C  0.94270336  0.44109867  0.92647117     1.09700
C692        C  0.06493477  0.43484345  0.54627965     1.09800
C693        C  0.95121458  0.44077910  0.58421198     1.09700
C694        C  0.05849627  0.43768739  0.94430399     1.09700
C695        C  0.26261849  0.26682031  0.78992084     0.45700
H696        H  0.25855201  0.27160801  0.82147756    -0.03300
C697        C  0.26961315  0.25682673  0.71588671     0.45700
H698        H  0.27308910  0.25183541  0.68413102    -0.03300
C699        C  0.29227119  0.29442722  0.77123460    -0.17000
C700        C  0.27712756  0.22524867  0.77988397    -0.16800
C701        C  0.22509657  0.27517357  0.76694072    -0.17200
C702        C  0.29576212  0.28929926  0.73168820    -0.17200
C703        C  0.28046470  0.22055910  0.74002947    -0.16700
C704        C  0.22866342  0.26968443  0.72710831    -0.17000
C705        C  0.72437591  0.26653654  0.70935317     0.45700
H706        H  0.73480003  0.26080126  0.67960424    -0.03300
C707        C  0.70412512  0.28076416  0.78035002     0.45700
H708        H  0.69563023  0.28674955  0.81089679    -0.03300
C709        C  0.69512426  0.29996706  0.71264296    -0.17000
C710        C  0.70375156  0.23111090  0.72817629    -0.16800
C711        C  0.75799403  0.27990662  0.73569963    -0.17200
C712        C  0.68421793  0.30791169  0.75031286    -0.17200
C713        C  0.69395151  0.23899145  0.76665026    -0.16700
C714        C  0.74745807  0.28624381  0.77365863    -0.17000
C715        C  0.27274695  0.72532978  0.72672470     0.45700
H716        H  0.28316541  0.71576927  0.69810894    -0.03300
C717        C  0.24976211  0.74575461  0.79479374     0.45700
H718        H  0.23876602  0.75506346  0.82359539    -0.03300
C719        C  0.29790047  0.70820959  0.76040015    -0.17000
C720        C  0.27300059  0.77011647  0.73218587    -0.16800
C721        C  0.23178582  0.71223300  0.73468070    -0.17200
C722        C  0.28482541  0.71887598  0.79686214    -0.17200
C723        C  0.26452785  0.78067507  0.77039836    -0.16700
C724        C  0.21975538  0.72202374  0.77126502    -0.17000
C725        C  0.75175751  0.73117769  0.77614827     0.45700
H726        H  0.75253743  0.72070500  0.80608593    -0.03300
C727        C  0.75533974  0.75231219  0.70443331     0.45700
H728        H  0.75692361  0.76139133  0.67349429    -0.03300
C729        C  0.72383740  0.70869572  0.74911850    -0.17000
C730        C  0.73954501  0.77432768  0.77115845    -0.16800
C731        C  0.79166879  0.72489234  0.75832518    -0.17200
C732        C  0.72625984  0.71968659  0.71088023    -0.17200
C733        C  0.74143901  0.78531242  0.73208932    -0.16700
C734        C  0.79361942  0.73553927  0.71971814    -0.17000
C735        C  0.20740673  0.68924237  0.70676112    -0.11800
C736        C  0.22054077  0.65573476  0.68626505     0.03700
C737        C  0.19422659  0.63213231  0.66627274    -0.12300
C738        C  0.15523378  0.64158034  0.66519033     0.18600
C739        C  0.14248101  0.67623423  0.68281929    -0.09300
C740        C  0.16846880  0.69973161  0.70327057    -0.02300
H741        H  0.20420411  0.60602488  0.65148482     0.05100
C742        C  0.12894235  0.61621594  0.64292813     0.20600
H743        H  0.15800148  0.72599387  0.71738850     0.10300
C744        C  0.11014687  0.58519343  0.66124802    -0.15700
C745        C  0.08685004  0.55926897  0.63983241     0.03300
C746        C  0.08224254  0.56449538  0.59923668    -0.11000
C747        C  0.10094761  0.59636107  0.58161160    -0.01000
C748        C  0.12415718  0.62171822  0.60289490    -0.06200
H749        H  0.11417345  0.58079732  0.69217726     0.06300
H750        H  0.09839859  0.60146773  0.55062959     0.09700
Br751      Br  0.08991467  0.69246262  0.67960881    -0.05900
Br752      Br  0.27275589  0.63789569  0.68553026    -0.02800
Br753      Br  0.06306767  0.51761016  0.66784093     0.00000
Br754      Br  0.14984768  0.66287181  0.57573960    -0.04400
C755        C  0.06750537  0.57420374  0.89716718    -0.11800
C756        C  0.07779601  0.61215293  0.91095562     0.03700
C757        C  0.09517844  0.63885433  0.88613597    -0.12300
C758        C  0.10198073  0.62974660  0.84712742     0.18600
C759        C  0.08952681  0.59305590  0.83257754    -0.09300
C760        C  0.07311326  0.56558274  0.85761467    -0.02300
H761        H  0.10532284  0.66634444  0.89808621     0.05100
C762        C  0.12920505  0.65477292  0.82526595     0.20600
H763        H  0.06523233  0.53713423  0.84615517     0.10300
C764        C  0.16256370  0.63685112  0.81214685    -0.15700
C765        C  0.19148282  0.65803597  0.79470987     0.03300
C766        C  0.18876293  0.69910236  0.79086368    -0.11000
C767        C  0.15558022  0.71769098  0.80477027    -0.01000
C768        C  0.12572143  0.69585723  0.82159399    -0.06200
H769        H  0.16662653  0.60573871  0.81626450     0.06300
H770        H  0.15257216  0.74903878  0.80187604     0.09700
Br771      Br  0.09493467  0.57859817  0.77882859    -0.05900
Br772      Br  0.07048280  0.63071575  0.96341618    -0.02800
Br773      Br  0.23366304  0.62733226  0.77809920     0.00000
Br774      Br  0.08054643  0.72319252  0.83787167    -0.04400
C775        C  0.07796817  0.40753828  0.92003914    -0.11800
C776        C  0.06693325  0.40101691  0.88089440     0.03700
C777        C  0.08753844  0.37501119  0.85740898    -0.12300
C778        C  0.12072199  0.35631901  0.87121463     0.18600
C779        C  0.13287445  0.36395793  0.90990162    -0.09300
C780        C  0.11125579  0.38890509  0.93402890    -0.02300
H781        H  0.07879991  0.37102633  0.82730269     0.05100
C782        C  0.14457616  0.33378640  0.84290875     0.20600
H783        H  0.12129758  0.39497068  0.96337119     0.10300
C784        C  0.15845820  0.35314977  0.81009393    -0.15700
C785        C  0.18183475  0.33420326  0.78290880     0.03300
C786        C  0.19286331  0.29470916  0.78851671    -0.11000
C787        C  0.17754297  0.27494165  0.82069603    -0.01000
C788        C  0.15292004  0.29371885  0.84708658    -0.06200
H789        H  0.15152438  0.38373483  0.80592206     0.06300
H790        H  0.18516738  0.24464670  0.82555987     0.09700
Br791      Br  0.18081842  0.34467098  0.92980649    -0.05900
Br792      Br  0.02845301  0.43168408  0.85544101    -0.02800
Br793      Br  0.19816086  0.36585071  0.74068431     0.00000
Br794      Br  0.13016724  0.26307514  0.88727590    -0.04400
C795        C  0.08770720  0.40563511  0.56945137    -0.11800
C796        C  0.12015326  0.41721238  0.59193952     0.03700
C797        C  0.13995641  0.39007065  0.61482541    -0.12300
C798        C  0.12988900  0.35044576  0.61541695     0.18600
C799        C  0.09741805  0.33859547  0.59336814    -0.09300
C800        C  0.07652749  0.36611853  0.57105670    -0.02300
H801        H  0.16387927  0.40016517  0.63249904     0.05100
C802        C  0.15417834  0.32334281  0.63969840     0.20600
H803        H  0.05176810  0.35642536  0.55442722     0.10300
C804        C  0.13803099  0.30060887  0.66948261    -0.15700
C805        C  0.16130303  0.28014861  0.69641123     0.03300
C806        C  0.20161566  0.28446512  0.69580853    -0.11000
C807        C  0.21744896  0.30522656  0.66446728    -0.01000
C808        C  0.19449760  0.32343971  0.63634186    -0.06200
H809        H  0.10720430  0.29925760  0.67236034     0.06300
H810        H  0.24811645  0.30886328  0.66222815     0.09700
Br811      Br  0.08118135  0.28514664  0.59136603    -0.05900
Br812      Br  0.13909765  0.46989182  0.59508878    -0.02800
Br813      Br  0.13664672  0.24474457  0.73114367     0.00000
Br814      Br  0.22034096  0.34800771  0.59375796    -0.04400
C815        C  0.92663622  0.41417224  0.60778499    -0.11800
C816        C  0.90372126  0.38445691  0.59080003     0.03700
C817        C  0.87761139  0.36345339  0.61358383    -0.12300
C818        C  0.87401016  0.37060532  0.65375421     0.18600
C819        C  0.89860052  0.39871483  0.67106972    -0.09300
C820        C  0.92413017  0.42023695  0.64817709    -0.02300
H821        H  0.86000294  0.34124920  0.59977549     0.05100
C822        C  0.84545538  0.34753105  0.67676286     0.20600
H823        H  0.94176557  0.44235908  0.66209044     0.10300
C824        C  0.84619678  0.30633718  0.67532261    -0.15700
C825        C  0.81873450  0.28375742  0.69488757     0.03300
C826        C  0.79064936  0.30203955  0.71791578    -0.11000
C827        C  0.79022593  0.34309574  0.71970481    -0.01000
C828        C  0.81600260  0.36573293  0.69835063    -0.06200
H829        H  0.86790303  0.29158165  0.65819210     0.06300
H830        H  0.76775268  0.35780973  0.73586397     0.09700
Br831      Br  0.90013052  0.40815113  0.72605618    -0.05900
Br832      Br  0.90886255  0.36890592  0.53737113    -0.02800
Br833      Br  0.82020848  0.22809381  0.68906256     0.00000
Br834      Br  0.80603984  0.42085832  0.69549630    -0.04400
C835        C  0.91620905  0.41261626  0.90751805    -0.11800
C836        C  0.88003673  0.40444710  0.92375631     0.03700
C837        C  0.85543654  0.37755781  0.90570328    -0.12300
C838        C  0.86516255  0.35901981  0.87054604     0.18600
C839        C  0.90134766  0.36715705  0.85423264    -0.09300
C840        C  0.92639056  0.39357656  0.87279268    -0.02300
H841        H  0.82748843  0.37256977  0.91824277     0.05100
C842        C  0.83444545  0.33746359  0.84875756     0.20600
H843        H  0.95368560  0.39958803  0.85961545     0.10300
C844        C  0.79957705  0.35683218  0.84229750    -0.15700
C845        C  0.76957946  0.33927852  0.82162298     0.03300
C846        C  0.77492064  0.30254827  0.80347740    -0.11000
C847        C  0.80920956  0.28218806  0.81145119    -0.01000
C848        C  0.83802971  0.29855874  0.83536563    -0.06200
H849        H  0.79546437  0.38609646  0.85375847     0.06300
H850        H  0.81328837  0.25313332  0.79949580     0.09700
Br851      Br  0.91733311  0.34555669  0.80538693    -0.05900
Br852      Br  0.86012667  0.43270319  0.96768223    -0.02800
Br853      Br  0.72286018  0.36801191  0.82069667     0.00000
Br854      Br  0.87945689  0.26551172  0.85195138    -0.04400
C855        C  0.82104815  0.70315953  0.78215960    -0.11800
C856        C  0.83109488  0.66355247  0.77548250     0.03700
C857        C  0.85096412  0.64244406  0.80402379    -0.12300
C858        C  0.86160319  0.65938561  0.83971327     0.18600
C859        C  0.85358141  0.69929820  0.84583874    -0.09300
C860        C  0.83307273  0.72051326  0.81750904    -0.02300
H861        H  0.85744503  0.61190177  0.79866755     0.05100
C862        C  0.88286421  0.63454873  0.86830116     0.20600
H863        H  0.82558427  0.75067820  0.82352895     0.10300
C864        C  0.91737662  0.61769101  0.85624482    -0.15700
C865        C  0.93568844  0.58872897  0.87809988     0.03300
C866        C  0.92061572  0.57675127  0.91426524    -0.11000
C867        C  0.88627973  0.59423472  0.92689502    -0.01000
C868        C  0.86715559  0.62247036  0.90408635    -0.06200
H869        H  0.92909129  0.62558537  0.82824756     0.06300
H870        H  0.87373221  0.58521203  0.95413476     0.09700
Br871      Br  0.87082151  0.72634468  0.89173077    -0.05900
Br872      Br  0.81612574  0.63386363  0.73071729    -0.02800
Br873      Br  0.97768909  0.56311024  0.85318374     0.00000
Br874      Br  0.81822626  0.64092884  0.92149094    -0.04400
C875        C  0.82166940  0.71876786  0.69115612    -0.11800
C876        C  0.86182693  0.72162649  0.69532640     0.03700
C877        C  0.88595309  0.69916081  0.67122487    -0.12300
C878        C  0.87068227  0.67391849  0.64252810     0.18600
C879        C  0.83064272  0.67282941  0.63706918    -0.09300
C880        C  0.80692531  0.69593572  0.66026254    -0.02300
H881        H  0.91671151  0.70061222  0.67555805     0.05100
C882        C  0.89586797  0.64551231  0.62184790     0.20600
H883        H  0.77636169  0.69298203  0.65610119     0.10300
C884        C  0.91403124  0.61603118  0.64350721    -0.15700
C885        C  0.93252463  0.58464600  0.62507574     0.03300
C886        C  0.93274074  0.58208514  0.58398364    -0.11000
C887        C  0.91635320  0.61272438  0.56237347    -0.01000
C888        C  0.89864054  0.64451606  0.58088524    -0.06200
H889        H  0.91217835  0.61641092  0.67497740     0.06300
H890        H  0.91698376  0.61174797  0.53084797     0.09700
Br891      Br  0.80600729  0.63593023  0.60271637    -0.05900
Br892      Br  0.88489172  0.75652377  0.73242229    -0.02800
Br893      Br  0.95339803  0.54442609  0.65777938     0.00000
Br894      Br  0.87848235  0.68567671  0.54891787    -0.04400
C895        C  0.56891253  0.09946816  0.93291416    -0.11800
C896        C  0.58608439  0.08304076  0.89918566     0.03700
C897        C  0.60730432  0.10653942  0.87401071    -0.12300
C898        C  0.61175919  0.14658374  0.88092266     0.18600
C899        C  0.59430274  0.16336401  0.91389256    -0.09300
C900        C  0.57328193  0.13990075  0.93957330    -0.02300
H901        H  0.61989224  0.09355211  0.84826234     0.05100
C902        C  0.63304885  0.17029618  0.85203160     0.20600
H903        H  0.56003521  0.15347249  0.96464814     0.10300
C904        C  0.61419032  0.18244503  0.81801647    -0.15700
C905        C  0.63351101  0.20349698  0.78928583     0.03300
C906        C  0.67270795  0.21294156  0.79407780    -0.11000
C907        C  0.69153262  0.20059665  0.82826064    -0.01000
C908        C  0.67224053  0.17903408  0.85676878    -0.06200
H909        H  0.58415745  0.17547347  0.81380022     0.06300
H910        H  0.72147753  0.20775486  0.83277056     0.09700
Br911      Br  0.59742590  0.21840461  0.92411031    -0.05900
Br912      Br  0.57978733  0.02945841  0.88323393    -0.02800
Br913      Br  0.60417798  0.21883985  0.74491322     0.00000
Br914      Br  0.70052839  0.16139215  0.90141960    -0.04400
C915        C  0.69036654  0.19537852  0.70478140    -0.11800
C916        C  0.67815102  0.19704221  0.66487692     0.03700
C917        C  0.66083446  0.16479593  0.64682904    -0.12300
C918        C  0.65419556  0.13016469  0.66665709     0.18600
C919        C  0.66834194  0.12675287  0.70503332    -0.09300
C920        C  0.68688862  0.15867983  0.72328488    -0.02300
H921        H  0.65045121  0.16743164  0.61711316     0.05100
C922        C  0.62947363  0.10031655  0.64686864     0.20600
H923        H  0.69781658  0.15477395  0.75252892     0.10300
C924        C  0.64213536  0.08198298  0.61246888    -0.15700
C925        C  0.61682778  0.06044407  0.58844589     0.03300
C926        C  0.57780025  0.05695496  0.59856061    -0.11000
C927        C  0.56575173  0.07403241  0.63383246    -0.01000
C928        C  0.59081928  0.09585099  0.65743702    -0.06200
H929        H  0.67161153  0.08563965  0.60353317     0.06300
H930        H  0.53595231  0.07222770  0.64225331     0.09700
Br931      Br  0.66243352  0.07929653  0.73372044    -0.05900
Br932      Br  0.67991266  0.24106769  0.63083982    -0.02800
Br933      Br  0.63727313  0.03635652  0.54253619     0.00000
Br934      Br  0.56955987  0.12266881  0.70147926    -0.04400
C935        C  0.42056953  0.08142956  0.59206914    -0.11800
C936        C  0.40832100  0.06616920  0.62801478     0.03700
C937        C  0.38169568  0.08655902  0.65019472    -0.12300
C938        C  0.36671688  0.12215454  0.63739228     0.18600
C939        C  0.37893886  0.13776409  0.60169186    -0.09300
C940        C  0.40598289  0.11743197  0.57934717    -0.02300
H941        H  0.37325841  0.07503801  0.67816425     0.05100
C942        C  0.34302651  0.14465022  0.66479624     0.20600
H943        H  0.41498525  0.12928574  0.55173254     0.10300
C944        C  0.36130550  0.16077719  0.69739783    -0.15700
C945        C  0.34103818  0.18284517  0.72442830     0.03300
C946        C  0.30121666  0.18886573  0.71932657    -0.11000
C947        C  0.28259625  0.17096994  0.68745904    -0.01000
C948        C  0.30316401  0.14885689  0.66029045    -0.06200
H949        H  0.39196347  0.15703143  0.70121570     0.06300
H950        H  0.25220533  0.17574719  0.68274938     0.09700
Br951      Br  0.35997656  0.18678546  0.58278851    -0.05900
Br952      Br  0.42865322  0.01877337  0.64987048    -0.02800
Br953      Br  0.37117685  0.20615771  0.76487067     0.00000
Br954      Br  0.27599693  0.12563750  0.61734069    -0.04400
C955        C  0.29227566  0.19597434  0.80990157    -0.11800
C956        C  0.31361201  0.20685546  0.84402303     0.03700
C957        C  0.33326535  0.17863021  0.86600841    -0.12300
C958        C  0.33296681  0.13915335  0.85568418     0.18600
C959        C  0.30954945  0.12740496  0.82412127    -0.09300
C960        C  0.28923328  0.15544952  0.80204675    -0.02300
H961        H  0.35074211  0.18791327  0.89060688     0.05100
C962        C  0.35939450  0.11199504  0.87712374     0.20600
H963        H  0.27204744  0.14545614  0.77759080     0.10300
C964        C  0.35277003  0.10336314  0.91648873    -0.15700
C965        C  0.37986632  0.08259062  0.93903365     0.03300
C966        C  0.41497622  0.07031168  0.92243661    -0.11000
C967        C  0.42085398  0.07808838  0.88269551    -0.01000
C968        C  0.39386762  0.09884802  0.86034220    -0.06200
H969        H  0.32656308  0.11344381  0.92996906     0.06300
H970        H  0.44742332  0.06928615  0.86908012     0.09700
Br971      Br  0.30502592  0.07339689  0.80984738    -0.05900
Br972      Br  0.32244812  0.25891740  0.86237025    -0.02800
Br973      Br  0.36647022  0.07112615  0.99179676     0.00000
Br974      Br  0.40706078  0.11121086  0.80774623    -0.04400
C975        C  0.58556890  0.92068420  0.59006151    -0.11800
C976        C  0.60781140  0.88872432  0.57668283     0.03700
C977        C  0.63513020  0.87116896  0.60132298    -0.12300
C978        C  0.64023059  0.88379254  0.63992335     0.18600
C979        C  0.61875440  0.91606419  0.65315465    -0.09300
C980        C  0.59184931  0.93411974  0.62840700    -0.02300
H981        H  0.65133187  0.84629191  0.59082475     0.05100
C982        C  0.66645240  0.86156840  0.66636120     0.20600
H983        H  0.57521468  0.95846924  0.63947462     0.10300
C984        C  0.70625151  0.86275387  0.66063755    -0.15700
C985        C  0.73137816  0.84032132  0.68370859     0.03300
C986        C  0.71696756  0.81624555  0.71347193    -0.11000
C987        C  0.67713929  0.81567356  0.71947069    -0.01000
C988        C  0.65203904  0.83756270  0.69608330    -0.06200
H989        H  0.71776887  0.88067655  0.63764668     0.06300
H990        H  0.66520543  0.79625771  0.74092491     0.09700
Br991      Br  0.62513196  0.93626122  0.70499248    -0.05900
Br992      Br  0.59917230  0.86394437  0.52734554    -0.02800
Br993      Br  0.78517142  0.84268810  0.67276679     0.00000
Br994      Br  0.59805211  0.83053831  0.70340321    -0.04400
C995        C  0.58680103  0.89730432  0.92799253    -0.11800
C996        C  0.62572934  0.90843684  0.93117720     0.03700
C997        C  0.65315992  0.89200803  0.90611643    -0.12300
C998        C  0.64237107  0.86513661  0.87700399     0.18600
C999        C  0.60338752  0.85448675  0.87361512    -0.09300
C1000       C  0.57619382  0.87018318  0.89914709    -0.02300
H1001       H  0.68306813  0.89970803  0.90978890     0.05100
C1002       C  0.67200183  0.84440154  0.85353673     0.20600
H1003       H  0.54637898  0.86197004  0.89572454     0.10300
C1004       C  0.67707563  0.80471355  0.86008619    -0.15700
C1005       C  0.69991689  0.78137753  0.83610644     0.03300
C1006       C  0.71927079  0.79792521  0.80323014    -0.11000
C1007       C  0.71735678  0.83919995  0.80002982    -0.01000
C1008       C  0.69359267  0.86213141  0.82415485    -0.06200
H1009       H  0.66164234  0.79138861  0.88385804     0.06300
H1010       H  0.73354189  0.85392770  0.77779227     0.09700
Br1011     Br  0.58574769  0.81918892  0.83369190    -0.05900
Br1012     Br  0.64326228  0.94430425  0.97057781    -0.02800
Br1013     Br  0.69949791  0.72844931  0.85412802     0.00000
Br1014     Br  0.68985261  0.91711302  0.81464138    -0.04400
C1015       C  0.28890143  0.80933771  0.79299653    -0.11800
C1016       C  0.27372148  0.83365676  0.82247672     0.03700
C1017       C  0.29838734  0.85586672  0.84656249    -0.12300
C1018       C  0.33831287  0.85464213  0.84153249     0.18600
C1019       C  0.35341203  0.83115374  0.81170980    -0.09300
C1020       C  0.32907216  0.80795856  0.78882267    -0.02300
H1021       H  0.28642467  0.87379650  0.86954367     0.05100
C1022       C  0.36452229  0.87592008  0.86860705     0.20600
H1023       H  0.34170777  0.78881616  0.76724102     0.10300
C1024       C  0.38244180  0.85520355  0.89885050    -0.15700
C1025       C  0.41110521  0.87249320  0.92201605     0.03300
C1026       C  0.42231568  0.91159263  0.91526675    -0.11000
C1027       C  0.40386728  0.93244632  0.88526744    -0.01000
C1028       C  0.37523931  0.91496424  0.86209609    -0.06200
H1029       H  0.37504464  0.82485481  0.90351214     0.06300
H1030       H  0.41194173  0.96242710  0.87960464     0.09700
Br1031     Br  0.40736508  0.83005784  0.80116199    -0.05900
Br1032     Br  0.21962242  0.83715822  0.83124055    -0.02800
Br1033     Br  0.43619258  0.83976108  0.95975036     0.00000
Br1034     Br  0.35271850  0.94479488  0.82071373    -0.04400
C1035       C  0.42442843  0.87963308  0.57075816    -0.11800
C1036       C  0.38508608  0.88224405  0.56096842     0.03700
C1037       C  0.35758888  0.86431029  0.58428975    -0.12300
C1038       C  0.36853349  0.84406983  0.61792757     0.18600
C1039       C  0.40790964  0.83906147  0.62628026    -0.09300
C1040       C  0.43556291  0.85669967  0.60266686    -0.02300
H1041       H  0.32746470  0.86782380  0.57722713     0.05100
C1042       C  0.33864472  0.82994301  0.64492525     0.20600
H1043       H  0.46553135  0.85493270  0.61097833     0.10300
C1044       C  0.31507815  0.79872175  0.63401489    -0.15700
C1045       C  0.28895818  0.78290399  0.66037737     0.03300
C1046       C  0.28861444  0.79591003  0.69982696    -0.11000
C1047       C  0.30612802  0.83237205  0.70725472    -0.01000
C1048       C  0.33174038  0.84874440  0.68070352    -0.06200
H1049       H  0.31663994  0.78694263  0.60473222     0.06300
H1050       H  0.30081455  0.84853856  0.73356689     0.09700
Br1051     Br  0.42492275  0.81010961  0.67089226    -0.05900
Br1052     Br  0.36733257  0.91224673  0.51726461    -0.02800
Br1053     Br  0.24986575  0.74993493  0.63804115     0.00000
Br1054     Br  0.35634852  0.89706710  0.69432656    -0.04400
C1055       C  0.38009621  0.60176750  0.98340725    -0.11800
C1056       C  0.38287259  0.64242856  0.98888213     0.03700
C1057       C  0.35819884  0.66711105  0.96838538    -0.12300
C1058       C  0.33138006  0.65152843  0.94196364     0.18600
C1059       C  0.32510107  0.61077558  0.94098326    -0.09300
C1060       C  0.34890599  0.58631696  0.96263408    -0.02300
H1061       H  0.36277403  0.69838980  0.96976024     0.05100
C1062       C  0.31890944  0.67589355  0.90908542     0.20600
H1063       H  0.34640440  0.55501104  0.95849236     0.10300
C1064       C  0.34712929  0.69024808  0.88406487    -0.15700
C1065       C  0.33734358  0.70644768  0.84813842     0.03300
C1066       C  0.29860037  0.70618527  0.83584138    -0.11000
C1067       C  0.27038907  0.69464464  0.86262618    -0.01000
C1068       C  0.28019329  0.68089225  0.89941138    -0.06200
H1069       H  0.37716118  0.68761469  0.89198653     0.06300
H1070       H  0.24029974  0.69555817  0.85487916     0.09700
Br1071     Br  0.29059631  0.58582714  0.90473795    -0.05900
Br1072     Br  0.42232292  0.66553657  0.02055180    -0.02800
Br1073     Br  0.37857606  0.72780322  0.81872529     0.00000
Br1074     Br  0.23997353  0.66942670  0.93538404    -0.04400
C1075       C  0.33380791  0.68669310  0.74988289    -0.11800
C1076       C  0.34483294  0.64900855  0.76335040     0.03700
C1077       C  0.37309825  0.62806013  0.74349550    -0.12300
C1078       C  0.39057334  0.64351588  0.71060479     0.18600
C1079       C  0.38219011  0.68178011  0.69912061    -0.09300
C1080       C  0.35508713  0.70336443  0.71949965    -0.02300
H1081       H  0.37983848  0.59843252  0.75225517     0.05100
C1082       C  0.41132681  0.61723189  0.68435811     0.20600
H1083       H  0.34849654  0.73255374  0.70937181     0.10300
C1084       C  0.38956244  0.59343332  0.65951278    -0.15700
C1085       C  0.40702509  0.57134654  0.63054027     0.03300
C1086       C  0.44718195  0.57296651  0.62613396    -0.11000
C1087       C  0.46917865  0.59534129  0.65248185    -0.01000
C1088       C  0.45143323  0.61765561  0.68142475    -0.06200
H1089       H  0.35862680  0.59281790  0.66212072     0.06300
H1090       H  0.50007252  0.59642710  0.64981507     0.09700
Br1091     Br  0.40280198  0.70361682  0.65240816    -0.05900
Br1092     Br  0.32331171  0.62169413  0.80628977    -0.02800
Br1093     Br  0.37415832  0.53880655  0.59923164     0.00000
Br1094     Br  0.48254595  0.64886832  0.71571357    -0.04400
C1095       C  0.55908955  0.60723249  0.89043689    -0.11800
C1096       C  0.56474492  0.64789174  0.89091220     0.03700
C1097       C  0.58324673  0.66548076  0.85952024    -0.12300
C1098       C  0.59533360  0.64289464  0.82758633     0.18600
C1099       C  0.58560013  0.60319060  0.82537948    -0.09300
C1100       C  0.56779663  0.58570521  0.85672314    -0.02300
H1101       H  0.59097141  0.69607213  0.86144689     0.05100
C1102       C  0.62633724  0.65770062  0.80324130     0.20600
H1103       H  0.56204909  0.55469390  0.85526038     0.10300
C1104       C  0.66276260  0.64146073  0.80915365    -0.15700
C1105       C  0.69464781  0.65660495  0.79072847     0.03300
C1106       C  0.69026951  0.68819650  0.76503118    -0.11000
C1107       C  0.65341467  0.70361503  0.75797802    -0.01000
C1108       C  0.62150676  0.68886883  0.77727913    -0.06200
H1109       H  0.66664764  0.61784590  0.82972512     0.06300
H1110       H  0.64965379  0.72827235  0.73873916     0.09700
Br1111     Br  0.59953855  0.57084205  0.78181594    -0.05900
Br1112     Br  0.55183933  0.67953711  0.93512270    -0.02800
Br1113     Br  0.74323919  0.63439808  0.80447790     0.00000
Br1114     Br  0.57242252  0.71256220  0.76820151    -0.04400
C1115       C  0.58550125  0.61410816  0.53935325    -0.11800
C1116       C  0.57052775  0.64466978  0.56295902     0.03700
C1117       C  0.59550755  0.66859258  0.58404476    -0.12300
C1118       C  0.63511284  0.66347941  0.58146919     0.18600
C1119       C  0.65002531  0.63697868  0.55406023    -0.09300
C1120       C  0.62524958  0.61252936  0.53322285    -0.02300
H1121       H  0.58389835  0.68931346  0.60482086     0.05100
C1122       C  0.65930044  0.67904002  0.61315845     0.20600
H1123       H  0.63745451  0.59044518  0.51431464     0.10300
C1124       C  0.67615645  0.65214529  0.63859062    -0.15700
C1125       C  0.69754364  0.66450013  0.67065254     0.03300
C1126       C  0.70175730  0.70480733  0.67843522    -0.11000
C1127       C  0.68456122  0.73179481  0.65286402    -0.01000
C1128       C  0.66323683  0.71921990  0.62053846    -0.06200
H1129       H  0.67270504  0.62108879  0.63330057     0.06300
H1130       H  0.68779683  0.76281064  0.65778851     0.09700
Br1131     Br  0.70416430  0.63112010  0.54655265    -0.05900
Br1132     Br  0.51684985  0.65465674  0.57073425    -0.02800
Br1133     Br  0.72221262  0.62418172  0.69987024     0.00000
Br1134     Br  0.64097156  0.75766262  0.58677722    -0.04400
C1135       C  0.53754518  0.47063877  0.86724190    -0.11800
C1136       C  0.51842555  0.44619292  0.84037886     0.03700
C1137       C  0.53976300  0.42205825  0.81529536    -0.12300
C1138       C  0.58009503  0.42161133  0.81704641     0.18600
C1139       C  0.59898725  0.44784192  0.84245672    -0.09300
C1140       C  0.57772388  0.47194071  0.86698244    -0.02300
H1141       H  0.52487844  0.40229277  0.79564512     0.05100
C1142       C  0.60230710  0.39181483  0.79505134     0.20600
H1143       H  0.59285771  0.49027048  0.88782881     0.10300
C1144       C  0.62937558  0.40396939  0.76777572    -0.15700
C1145       C  0.65619705  0.37778617  0.75224864     0.03300
C1146       C  0.65504373  0.33767666  0.76262106    -0.11000
C1147       C  0.62649548  0.32543036  0.78844642    -0.01000
C1148       C  0.60055913  0.35193667  0.80479041    -0.06200
H1149       H  0.63144027  0.43471786  0.76072905     0.06300
H1150       H  0.62505467  0.29505368  0.79697580     0.09700
Br1151     Br  0.65375675  0.44927311  0.84831827    -0.05900
Br1152     Br  0.46381189  0.44253998  0.83887362    -0.01900
Br1153     Br  0.69706557  0.40124400  0.72370195     0.00000
Br1154     Br  0.56566467  0.33253664  0.84294452    -0.04400
C1155       C  0.59746523  0.45090516  0.55448483    -0.11800
C1156       C  0.62376753  0.46318504  0.58353072     0.03700
C1157       C  0.64935608  0.43613879  0.59929275    -0.12300
C1158       C  0.64926121  0.39731914  0.58630996     0.18600
C1159       C  0.62648387  0.38634084  0.55429788    -0.09300
C1160       C  0.60077899  0.41312385  0.53856532    -0.02300
H1161       H  0.66709143  0.44456936  0.62399864     0.05100
C1162       C  0.66232176  0.36773125  0.61374455     0.20600
H1163       H  0.58184919  0.40354310  0.51525175     0.10300
C1164       C  0.63405196  0.34963012  0.63577960    -0.15700
C1165       C  0.64375940  0.32671842  0.66749042     0.03300
C1166       C  0.68266718  0.32168326  0.67769365    -0.11000
C1167       C  0.71106262  0.33724646  0.65336129    -0.01000
C1168       C  0.70112679  0.36105344  0.62202852    -0.06200
H1169       H  0.60403109  0.35454276  0.62898448     0.06300
H1170       H  0.74101370  0.33236408  0.65961824     0.09700
Br1171     Br  0.62679958  0.33393095  0.53413533    -0.05900
Br1172     Br  0.62603721  0.51562524  0.60373918    -0.02800
Br1173     Br  0.60211253  0.30202657  0.69316008     0.00000
Br1174     Br  0.74099186  0.38481584  0.59234793    -0.04400
C1175       C  0.40445357  0.45583257  0.92122036    -0.11800
C1176       C  0.38134345  0.46920053  0.88972286     0.03700
C1177       C  0.36008117  0.44247546  0.86817083    -0.12300
C1178       C  0.36049470  0.40303542  0.87780418     0.18600
C1179       C  0.38098907  0.38988583  0.91047373    -0.09300
C1180       C  0.40296908  0.41627474  0.93191525    -0.02300
H1181       H  0.34395130  0.45228743  0.84292570     0.05100
C1182       C  0.34293508  0.37575800  0.85057007     0.20600
H1183       H  0.41942464  0.40557111  0.95653885     0.10300
C1184       C  0.36687860  0.35517495  0.82544228    -0.15700
C1185       C  0.35172313  0.32962305  0.79782638     0.03300
C1186       C  0.31145566  0.32453431  0.79538730    -0.11000
C1187       C  0.28769613  0.34656516  0.82009864    -0.01000
C1188       C  0.30313313  0.37220475  0.84743007    -0.06200
H1189       H  0.39768358  0.35892297  0.82762321     0.06300
H1190       H  0.25686938  0.34352944  0.81845433     0.09700
Br1191     Br  0.37979285  0.33630453  0.92650950    -0.05900
Br1192     Br  0.37729947  0.52257351  0.87259906    -0.02800
Br1193     Br  0.38897450  0.30217526  0.76771782     0.00000
Br1194     Br  0.26908323  0.40108425  0.88039122    -0.04400
C1195       C  0.43590376  0.42452442  0.58214811    -0.11800
C1196       C  0.44981025  0.41678224  0.61998903     0.03700
C1197       C  0.43181407  0.38834157  0.64259505    -0.12300
C1198       C  0.40008372  0.36759222  0.62801416     0.18600
C1199       C  0.38788328  0.37354393  0.58941442    -0.09300
C1200       C  0.40603244  0.40152321  0.56674743    -0.02300
H1201       H  0.44078534  0.38439733  0.67259866     0.05100
C1202       C  0.37519473  0.34675516  0.65537385     0.20600
H1203       H  0.39492359  0.40726947  0.53776493     0.10300
C1204       C  0.35085221  0.36918958  0.67858840    -0.15700
C1205       C  0.32442982  0.35168302  0.70314375     0.03300
C1206       C  0.32230461  0.31047146  0.70529733    -0.11000
C1207       C  0.34649145  0.28801908  0.68121784    -0.01000
C1208       C  0.37307928  0.30585413  0.65672289    -0.06200
H1209       H  0.35181996  0.40077561  0.67679939     0.06300
H1210       H  0.34544530  0.25645540  0.68219455     0.09700
Br1211     Br  0.34327964  0.34814172  0.56819048    -0.05900
Br1212     Br  0.48914926  0.44773608  0.64429142    -0.02800
Br1213     Br  0.29118991  0.38685523  0.72986815     0.00000
Br1214     Br  0.40655000  0.27369483  0.62631912    -0.04400
loop_ 
_geom_bond_atom_site_label_1 
_geom_bond_atom_site_label_2 
_geom_bond_distance 
_geom_bond_site_symmetry_2 
_ccdc_geom_bond_type 
O1            C9   1.300       .  A
O1          Co21   2.121       .  S
O2           C10   1.282       .  A
O2          Co22   2.062       .  S
O3           C11   1.264       .  A
O3          Co23   1.957       .  S
O4           C12   1.247       .  A
O4          Co24   1.951   1_554  S
O5           C11   1.265       .  A
O5          Co22   1.986       .  S
O6           C12   1.253       .  A
O6          Co21   1.994       .  S
O7           C10   1.261       .  A
O7         Co631   1.952       .  S
O8            C9   1.265       .  A
O8         Co630   1.869       .  S
C9          C588   1.474       .  S
C10         C528   1.477       .  S
C11         C568   1.467       .  S
C12         C548   1.468       .  S
O13          C26   1.264       .  A
O13         Co21   1.942       .  S
O14          C27   1.262       .  A
O14         Co22   1.976       .  S
O15          C28   1.290       .  A
O15        Co630   2.097       .  S
O16          C29   1.265       .  A
O16        Co631   1.994       .  S
O17          C29   1.257       .  A
O17         Co22   1.965       .  S
O18          C28   1.260       .  A
O18         Co21   1.898       .  S
O19          C26   1.287       .  A
O19         Co24   2.038   1_554  S
O20          C27   1.265       .  A
O20         Co23   1.996       .  S
Co21         O25   2.002   1_554  S
Co22        O632   2.024       .  S
Co23        O615   1.869       .  S
Co23        O622   2.097       .  S
Co23        O632   1.985       .  S
Co24        O614   1.952       .  S
Co24        O623   1.994       .  S
Co24         O25   1.998       .  S
O25        Co629   2.024       .  S
O25        Co630   1.985   1_556  S
C26         C508   1.481       .  S
C27         C448   1.463       .  S
C28         C479   1.470       .  S
C29         C488   1.467       .  S
O30          C38   1.269       .  A
O30         Co50   2.020       .  S
O31          C39   1.294       .  A
O31         Co51   2.061   1_545  S
O32          C40   1.277       .  A
O32        Co659   1.919       .  S
O33          C41   1.266       .  A
O33         Co53   2.008       .  S
O34          C40   1.295       .  A
O34         Co51   2.069       .  S
O35          C41   1.267       .  A
O35         Co50   2.011   1_545  S
O36          C39   1.277       .  A
O36        Co660   1.926       .  S
O37          C38   1.264       .  A
O37         Co52   1.999   1_554  S
C38         C368   1.497       .  S
C39         C288   1.498       .  S
C40         C388   1.486       .  S
C41         C319   1.498       .  S
O42          C55   1.257       .  A
O42         Co50   1.957   1_545  S
O43          C56   1.256       .  A
O43         Co51   2.010       .  S
O44          C57   1.276       .  A
O44         Co52   2.039   1_554  S
O45          C58   1.250       .  A
O45        Co660   1.993       .  S
O46          C58   1.256       .  A
O46         Co51   2.005   1_545  S
O47          C57   1.258       .  A
O47         Co50   1.959       .  S
O48          C55   1.272       .  A
O48         Co53   2.023       .  S
O49          C56   1.244       .  A
O49        Co659   1.968       .  S
Co50         O54   2.066       .  S
Co51        O661   2.240       .  S
Co52        O639   1.919       .  S
Co52        O656   1.968       .  S
Co52         O54   1.954   1_556  S
Co53        O643   1.926   1_554  S
Co53        O652   1.993   1_554  S
Co53         O54   1.961   1_545  S
O54        Co658   2.239   1_554  S
C55         C328   1.471       .  S
C56         C419   1.489       .  S
C57         C428   1.478       .  S
C58         C359   1.503       .  S
O59          C67   1.252       .  A
O59         Co79   1.978       .  S
O60          C68   1.256       .  A
O60        Co687   1.952       .  S
O61          C69   1.276       .  A
O61         Co81   2.039       .  S
O62          C70   1.240       .  A
O62         Co82   1.977       .  S
O63          C69   1.258       .  A
O63         Co80   1.947   1_554  S
O64          C70   1.252       .  A
O64        Co686   2.021       .  S
O65          C68   1.280       .  A
O65         Co82   2.042   1_455  S
O66          C67   1.252       .  A
O66         Co81   1.990   1_655  S
C67         C279   1.486       .  S
C68         C148   1.495       .  S
C69         C139   1.490       .  S
C70         C259   1.497       .  S
O71          C84   1.295       .  A
O71        Co686   2.051       .  S
O72          C85   1.266       .  A
O72         Co80   2.011   1_554  S
O73          C86   1.273       .  A
O73         Co81   1.895   1_655  S
O74          C87   1.263       .  A
O74         Co82   1.986   1_455  S
O75          C87   1.268       .  A
O75        Co687   2.022       .  S
O76          C86   1.302       .  A
O76         Co79   2.102       .  S
O77          C84   1.281       .  A
O77         Co82   1.932       .  S
O78          C85   1.265       .  A
O78         Co81   1.995       .  S
Co79        O671   2.021   1_554  S
Co79        O678   2.051   1_554  S
Co79         O83   2.220   1_655  S
Co80        O667   1.952       .  S
Co80        O682   2.022       .  S
Co80         O83   2.069   1_556  S
Co81         O83   1.983       .  S
Co82        O690   1.954   1_655  S
O83        Co689   1.954   1_454  S
C84         C228   1.489       .  S
C85         C188   1.503       .  S
C86         C208   1.498       .  S
C87         C168   1.489       .  S
C88          H89   1.106       .  S
C88          C94   1.550       .  S
C88          C93   1.547       .  S
C88          C92   1.548       .  S
C90          H91   1.111       .  S
C90          C96   1.541       .  S
C90          C95   1.534       .  S
C90          C97   1.545       .  S
C92          C95   1.375       .  D
C92         C579   1.477       .  S
C93          C96   1.384       .  D
C93         C348   1.532       .  S
C94          C97   1.387       .  D
C94         C179   1.506       .  S
C95         C599   1.493       .  S
C96         C339   1.485       .  S
C97         C199   1.513       .  S
C98          H99   1.104       .  S
C98         C104   1.544       .  S
C98         C103   1.558       .  S
C98         C102   1.536       .  S
C100        H101   1.111       .  S
C100        C106   1.544       .  S
C100        C105   1.551       .  S
C100        C107   1.543       .  S
C102        C105   1.378       .  D
C102        C559   1.477       .  S
C103        C106   1.393       .  D
C103        C308   1.531       .  S
C104        C107   1.374       .  D
C104        C219   1.505       .  S
C105        C539   1.500       .  S
C106        C299   1.502       .  S
C107        C239   1.503       .  S
C108        H109   1.099       .  S
C108        C114   1.526       .  S
C108        C113   1.543       .  S
C108        C112   1.562       .  S
C110        H111   1.109       .  S
C110        C116   1.555       .  S
C110        C115   1.531       .  S
C110        C117   1.546       .  S
C112        C115   1.384       .  D
C112        C468   1.498       .  S
C113        C116   1.394       .  D
C113        C439   1.528       .  S
C114        C117   1.368       .  D
C114        C128   1.498       .  S
C115        C459   1.486       .  S
C116        C408   1.507       .  S
C117        C159   1.503       .  S
C118        H119   1.091       .  S
C118        C124   1.540       .  S
C118        C123   1.546       .  S
C118        C122   1.544       .  S
C120        H121   1.111       .  S
C120        C126   1.552       .  S
C120        C125   1.529       .  S
C120        C127   1.542       .  S
C122        C125   1.372       .  D
C122        C499   1.477       .  S
C123        C126   1.398       .  D
C123        C399   1.539       .  S
C124        C127   1.380       .  D
C124        C248   1.505       .  S
C125        C519   1.487       .  S
C126        C379   1.501       .  S
C127        C268   1.503       .  S
C128        C129   1.420       .  A
C128        C133   1.409       .  A
C129        C130   1.398       .  A
C129       Br145   1.921       .  S
C130        C131   1.398       .  A
C130        H134   1.084       .  S
C131        C135   1.471       .  S
C131        C132   1.402       .  A
C132        C133   1.396       .  A
C132       Br144   1.918       .  S
C133        H136   1.083       .  S
C135        C137   1.404       .  A
C135        C141   1.398       .  A
C137        C138   1.405       .  A
C137        H142   1.082       .  S
C138        C139   1.415       .  A
C138       Br146   1.919       .  S
C139        C140   1.414       .  A
C140        C141   1.389       .  A
C140        H143   1.082       .  S
C141       Br147   1.921       .  S
C148        C149   1.426       .  A
C148        C153   1.404       .  A
C149        C150   1.396       .  A
C149       Br165   1.927       .  S
C150        C151   1.396       .  A
C150        H154   1.083       .  S
C151        C155   1.491       .  S
C151        C152   1.417       .  A
C152        C153   1.404       .  A
C152       Br164   1.920       .  S
C153        H156   1.083       .  S
C155        C157   1.392       .  A
C155        C161   1.417       .  A
C157        C158   1.386       .  A
C157        H162   1.084       .  S
C158        C159   1.415       .  A
C158       Br166   1.897       .  S
C159        C160   1.406       .  A
C160        C161   1.413       .  A
C160        H163   1.083       .  S
C161       Br167   1.917       .  S
C168        C169   1.412       .  A
C168        C173   1.406       .  A
C169        C170   1.400       .  A
C169       Br185   1.911       .  S
C170        C171   1.402       .  A
C170        H174   1.084       .  S
C171        C175   1.495       .  S
C171        C172   1.415       .  A
C172        C173   1.409       .  A
C172       Br184   1.919       .  S
C173        H176   1.083       .  S
C175        C177   1.401       .  A
C175        C181   1.409       .  A
C177        C178   1.401       .  A
C177        H182   1.084       .  S
C178        C179   1.418       .  A
C178       Br186   1.907       .  S
C179        C180   1.409       .  A
C180        C181   1.406       .  A
C180        H183   1.083       .  S
C181       Br187   1.917       .  S
C188        C189   1.421       .  A
C188        C193   1.410       .  A
C189        C190   1.398       .  A
C189       Br205   1.924       .  S
C190        C191   1.402       .  A
C190        H194   1.084       .  S
C191        C195   1.506       .  S
C191        C192   1.416       .  A
C192        C193   1.415       .  A
C192       Br204   1.917       .  S
C193        H196   1.083       .  S
C195        C197   1.411       .  A
C195        C201   1.413       .  A
C197        C198   1.413       .  A
C197        H202   1.082       .  S
C198        C199   1.415       .  A
C198       Br206   1.916       .  S
C199        C200   1.411       .  A
C200        C201   1.398       .  A
C200        H203   1.081       .  S
C201       Br207   1.923       .  S
C208        C209   1.415       .  A
C208        C213   1.405       .  A
C209        C210   1.407       .  A
C209       Br225   1.918       .  S
C210        C211   1.407       .  A
C210        H214   1.083       .  S
C211        C215   1.505       .  S
C211        C212   1.416       .  A
C212        C213   1.406       .  A
C212       Br224   1.915       .  S
C213        H216   1.083       .  S
C215        C217   1.411       .  A
C215        C221   1.414       .  A
C217        C218   1.410       .  A
C217        H222   1.085       .  S
C218        C219   1.408       .  A
C218       Br226   1.915       .  S
C219        C220   1.406       .  A
C220        C221   1.403       .  A
C220        H223   1.086       .  S
C221       Br227   1.921       .  S
C228        C229   1.413       .  A
C228        C233   1.404       .  A
C229        C230   1.399       .  A
C229       Br245   1.922       .  S
C230        C231   1.405       .  A
C230        H234   1.084       .  S
C231        C235   1.496       .  S
C231        C232   1.415       .  A
C232        C233   1.405       .  A
C232       Br244   1.917       .  S
C233        H236   1.079       .  S
C235        C237   1.401       .  A
C235        C241   1.412       .  A
C237        C238   1.395       .  A
C237        H242   1.084       .  S
C238        C239   1.413       .  A
C238       Br246   1.902       .  S
C239        C240   1.409       .  A
C240        C241   1.408       .  A
C240        H243   1.083       .  S
C241       Br247   1.918       .  S
C248        C249   1.417       .  A
C248        C253   1.410       .  A
C249        C250   1.399       .  A
C249       Br265   1.908       .  S
C250        C251   1.401       .  A
C250        H254   1.084       .  S
C251        C255   1.494       .  S
C251        C252   1.409       .  A
C252        C253   1.407       .  A
C252       Br264   1.917       .  S
C253        H256   1.084       .  S
C255        C257   1.399       .  A
C255        C261   1.414       .  A
C257        C258   1.397       .  A
C257        H262   1.084       .  S
C258        C259   1.416       .  A
C258       Br266   1.912       .  S
C259        C260   1.409       .  A
C260        C261   1.411       .  A
C260        H263   1.083       .  S
C261       Br267   1.918       .  S
C268        C269   1.411       .  A
C268        C273   1.409       .  A
C269        C270   1.410       .  A
C269       Br285   1.915       .  S
C270        C271   1.409       .  A
C270        H274   1.083       .  S
C271        C275   1.491       .  S
C271        C272   1.408       .  A
C272        C273   1.395       .  A
C272       Br284   1.923       .  S
C273        H276   1.080       .  S
C275        C277   1.404       .  A
C275        C281   1.412       .  A
C277        C278   1.403       .  A
C277        H282   1.084       .  S
C278        C279   1.414       .  A
C278       Br286   1.920       .  S
C279        C280   1.406       .  A
C280        C281   1.402       .  A
C280        H283   1.084       .  S
C281       Br287   1.920       .  S
C288        C289   1.422       .  A
C288        C293   1.410       .  A
C289        C290   1.401       .  A
C289       Br305   1.924       .  S
C290        C291   1.399       .  A
C290        H294   1.084       .  S
C291        C295   1.490       .  S
C291        C292   1.410       .  A
C292        C293   1.408       .  A
C292       Br304   1.918       .  S
C293        H296   1.083       .  S
C295        C297   1.401       .  A
C295        C301   1.408       .  A
C297        C298   1.403       .  A
C297        H302   1.084       .  S
C298        C299   1.414       .  A
C298       Br306   1.904       .  S
C299        C300   1.407       .  A
C300        C301   1.406       .  A
C300        H303   1.083       .  S
C301       Br307   1.917       .  S
C308        C309   1.434       .  A
C308        C313   1.417       .  A
C309        C310   1.399       .  A
C309       Br325   1.914       .  S
C310        C311   1.391       .  A
C310        H314   1.084       .  S
C311        C315   1.495       .  S
C311        C312   1.409       .  A
C312        C313   1.412       .  A
C312       Br324   1.917       .  S
C313        H316   1.080       .  S
C315        C317   1.409       .  A
C315        C321   1.409       .  A
C317        C318   1.410       .  A
C317        H322   1.083       .  S
C318        C319   1.414       .  A
C318       Br326   1.918       .  S
C319        C320   1.410       .  A
C320        C321   1.401       .  A
C320        H323   1.084       .  S
C321       Br327   1.919       .  S
C328        C329   1.413       .  A
C328        C333   1.403       .  A
C329        C330   1.391       .  A
C329       Br345   1.923       .  S
C330        C331   1.396       .  A
C330        H334   1.084       .  S
C331        C335   1.471       .  S
C331        C332   1.410       .  A
C332        C333   1.403       .  A
C332       Br344   1.917       .  S
C333        H336   1.083       .  S
C335        C337   1.396       .  A
C335        C341   1.405       .  A
C337        C338   1.391       .  A
C337        H342   1.084       .  S
C338        C339   1.414       .  A
C338       Br346   1.908       .  S
C339        C340   1.406       .  A
C340        C341   1.400       .  A
C340        H343   1.083       .  S
C341       Br347   1.917       .  S
C348        C349   1.431       .  A
C348        C353   1.416       .  A
C349        C350   1.404       .  A
C349       Br365   1.912       .  S
C350        C351   1.395       .  A
C350        H354   1.084       .  S
C351        C355   1.500       .  S
C351        C352   1.409       .  A
C352        C353   1.412       .  A
C352       Br364   1.916       .  S
C353        H356   1.082       .  S
C355        C357   1.407       .  A
C355        C361   1.410       .  A
C357        C358   1.411       .  A
C357        H362   1.083       .  S
C358        C359   1.418       .  A
C358       Br366   1.919       .  S
C359        C360   1.409       .  A
C360        C361   1.404       .  A
C360        H363   1.083       .  S
C361       Br367   1.918       .  S
C368        C369   1.417       .  A
C368        C373   1.409       .  A
C369        C370   1.405       .  A
C369       Br385   1.913       .  S
C370        C371   1.403       .  A
C370        H374   1.083       .  S
C371        C375   1.494       .  S
C371        C372   1.409       .  A
C372        C373   1.406       .  A
C372       Br384   1.918       .  S
C373        H376   1.084       .  S
C375        C377   1.405       .  A
C375        C381   1.411       .  A
C377        C378   1.406       .  A
C377        H382   1.083       .  S
C378        C379   1.413       .  A
C378       Br386   1.919       .  S
C379        C380   1.407       .  A
C380        C381   1.402       .  A
C380        H383   1.082       .  S
C381       Br387   1.918       .  S
C388        C389   1.415       .  A
C388        C393   1.402       .  A
C389        C390   1.407       .  A
C389       Br405   1.919       .  S
C390        C391   1.405       .  A
C390        H394   1.083       .  S
C391        C395   1.492       .  S
C391        C392   1.412       .  A
C392        C393   1.402       .  A
C392       Br404   1.921       .  S
C393        H396   1.083       .  S
C395        C397   1.389       .  A
C395        C401   1.406       .  A
C397        C398   1.398       .  A
C397        H402   1.085       .  S
C398        C399   1.440       .  A
C398       Br406   1.918       .  S
C399        C400   1.419       .  A
C400        C401   1.412       .  A
C400        H403   1.081       .  S
C401       Br407   1.916       .  S
C408        C409   1.413       .  A
C408        C413   1.411       .  A
C409        C410   1.410       .  A
C409       Br425   1.917       .  S
C410        C411   1.406       .  A
C410        H414   1.083       .  S
C411        C415   1.487       .  S
C411        C412   1.404       .  A
C412        C413   1.398       .  A
C412       Br424   1.920       .  S
C413        H416   1.083       .  S
C415        C417   1.403       .  A
C415        C421   1.408       .  A
C417        C418   1.403       .  A
C417        H422   1.084       .  S
C418        C419   1.416       .  A
C418       Br426   1.922       .  S
C419        C420   1.407       .  A
C420        C421   1.405       .  A
C420        H423   1.084       .  S
C421       Br427   1.917       .  S
C428        C429   1.413       .  A
C428        C433   1.403       .  A
C429        C430   1.400       .  A
C429       Br445   1.921       .  S
C430        C431   1.400       .  A
C430        H434   1.083       .  S
C431        C435   1.485       .  S
C431        C432   1.411       .  A
C432        C433   1.405       .  A
C432       Br444   1.919       .  S
C433        H436   1.083       .  S
C435        C437   1.397       .  A
C435        C441   1.407       .  A
C437        C438   1.402       .  A
C437        H442   1.084       .  S
C438        C439   1.424       .  A
C438       Br446   1.924       .  S
C439        C440   1.412       .  A
C440        C441   1.402       .  A
C440        H443   1.075       .  S
C441       Br447   1.919       .  S
C448        C449   1.407       .  A
C448        C453   1.399       .  A
C449        C450   1.394       .  A
C449       Br465   1.917       .  S
C450        C451   1.402       .  A
C450        H454   1.083       .  S
C451        C455   1.470       .  S
C451        C452   1.413       .  A
C452        C453   1.392       .  A
C452       Br464   1.923       .  S
C453        H456   1.084       .  S
C455        C457   1.404       .  A
C455        C461   1.399       .  A
C457        C458   1.395       .  A
C457        H462   1.084       .  S
C458        C459   1.413       .  A
C458       Br466   1.914       .  S
C459        C460   1.412       .  A
C460        C461   1.391       .  A
C460        H463   1.081       .  S
C461       Br467   1.920       .  S
C468        C469   1.424       .  A
C468        C473   1.410       .  A
C469        C470   1.398       .  A
C469       Br485   1.911       .  S
C470        C471   1.396       .  A
C470        H474   1.084       .  S
C471        C475   1.465       .  S
C471        C472   1.399       .  A
C472        C473   1.390       .  A
C472       Br484   1.920       .  S
C473        H476   1.083       .  S
C475        C477   1.397       .  A
C475        C481   1.404       .  A
C477        C478   1.391       .  A
C477        H482   1.084       .  S
C478        C479   1.412       .  A
C478       Br486   1.919       .  S
C479        C480   1.406       .  A
C480        C481   1.398       .  A
C480        H483   1.083       .  S
C481       Br487   1.917       .  S
C488        C489   1.406       .  A
C488        C493   1.404       .  A
C489        C490   1.401       .  A
C489       Br505   1.917       .  S
C490        C491   1.406       .  A
C490        H494   1.083       .  S
C491        C495   1.466       .  S
C491        C492   1.403       .  A
C492        C493   1.387       .  A
C492       Br504   1.922       .  S
C493        H496   1.081       .  S
C495        C497   1.400       .  A
C495        C501   1.403       .  A
C497        C498   1.387       .  A
C497        H502   1.084       .  S
C498        C499   1.407       .  A
C498       Br506   1.913       .  S
C499        C500   1.409       .  A
C500        C501   1.397       .  A
C500        H503   1.082       .  S
C501       Br507   1.917       .  S
C508        C509   1.422       .  A
C508        C513   1.405       .  A
C509        C510   1.393       .  A
C509       Br525   1.924       .  S
C510        C511   1.396       .  A
C510        H514   1.084       .  S
C511        C515   1.470       .  S
C511        C512   1.406       .  A
C512        C513   1.395       .  A
C512       Br524   1.919       .  S
C513        H516   1.083       .  S
C515        C517   1.398       .  A
C515        C521   1.404       .  A
C517        C518   1.390       .  A
C517        H522   1.084       .  S
C518        C519   1.412       .  A
C518       Br526   1.910       .  S
C519        C520   1.408       .  A
C520        C521   1.398       .  A
C520        H523   1.080       .  S
C521       Br527   1.917       .  S
C528        C529   1.407       .  A
C528        C533   1.403       .  A
C529        C530   1.407       .  A
C529       Br545   1.910       .  S
C530        C531   1.408       .  A
C530        H534   1.083       .  S
C531        C535   1.487       .  S
C531        C532   1.410       .  A
C532        C533   1.393       .  A
C532       Br544   1.921       .  S
C533        H536   1.084       .  S
C535        C537   1.401       .  A
C535        C541   1.409       .  A
C537        C538   1.401       .  A
C537        H542   1.084       .  S
C538        C539   1.421       .  A
C538       Br546   1.918       .  S
C539        C540   1.406       .  A
C540        C541   1.399       .  A
C540        H543   1.083       .  S
C541       Br547   1.919       .  S
C548        C549   1.413       .  A
C548        C553   1.406       .  A
C549        C550   1.393       .  A
C549       Br565   1.922       .  S
C550        C551   1.399       .  A
C550        H554   1.084       .  S
C551        C555   1.457       .  S
C551        C552   1.401       .  A
C552        C553   1.389       .  A
C552       Br564   1.919       .  S
C553        H556   1.084       .  S
C555        C557   1.396       .  A
C555        C561   1.400       .  A
C557        C558   1.385       .  A
C557        H562   1.084       .  S
C558        C559   1.410       .  A
C558       Br566   1.907       .  S
C559        C560   1.409       .  A
C560        C561   1.395       .  A
C560        H563   1.078       .  S
C561       Br567   1.917       .  S
C568        C569   1.421       .  A
C568        C573   1.406       .  A
C569        C570   1.386       .  A
C569       Br585   1.927       .  S
C570        C571   1.392       .  A
C570        H574   1.084       .  S
C571        C575   1.451       .  S
C571        C572   1.401       .  A
C572        C573   1.390       .  A
C572       Br584   1.918       .  S
C573        H576   1.083       .  S
C575        C577   1.394       .  A
C575        C581   1.397       .  A
C577        C578   1.389       .  A
C577        H582   1.085       .  S
C578        C579   1.418       .  A
C578       Br586   1.910       .  S
C579        C580   1.407       .  A
C580        C581   1.388       .  A
C580        H583   1.082       .  S
C581       Br587   1.918       .  S
C588        C589   1.410       .  A
C588        C593   1.405       .  A
C589        C590   1.401       .  A
C589       Br605   1.918       .  S
C590        C591   1.404       .  A
C590        H594   1.084       .  S
C591        C595   1.473       .  S
C591        C592   1.405       .  A
C592        C593   1.394       .  A
C592       Br604   1.921       .  S
C593        H596   1.084       .  S
C595        C597   1.396       .  A
C595        C601   1.403       .  A
C597        C598   1.393       .  A
C597        H602   1.084       .  S
C598        C599   1.415       .  A
C598       Br606   1.907       .  S
C599        C600   1.410       .  A
C600        C601   1.401       .  A
C600        H603   1.082       .  S
C601       Br607   1.916       .  S
O608        C616   1.300       .  A
O608       Co628   2.121       .  S
O609        C617   1.282       .  A
O609       Co629   2.062       .  S
O610        C618   1.264       .  A
O610       Co630   1.957   1_556  S
O611        C619   1.247       .  A
O611       Co631   1.951       .  S
O612        C618   1.265       .  A
O612       Co629   1.986       .  S
O613        C619   1.253       .  A
O613       Co628   1.994       .  S
O614        C617   1.261       .  A
O615        C616   1.265       .  A
C616       C1195   1.474       .  S
C617       C1135   1.477       .  S
C618       C1175   1.467       .  S
C619       C1155   1.468       .  S
O620        C633   1.264       .  A
O620       Co628   1.942       .  S
O621        C634   1.262       .  A
O621       Co629   1.976       .  S
O622        C635   1.290       .  A
O623        C636   1.265       .  A
O624        C636   1.257       .  A
O624       Co629   1.965       .  S
O625        C635   1.260       .  A
O625       Co628   1.898       .  S
O626        C633   1.287       .  A
O626       Co631   2.038       .  S
O627        C634   1.265       .  A
O627       Co630   1.996   1_556  S
Co628       O632   2.002       .  S
Co631       O632   1.998       .  S
C633       C1115   1.481       .  S
C634       C1055   1.463       .  S
C635       C1086   1.470       .  S
C636       C1095   1.467       .  S
O637        C645   1.269       .  A
O637       Co657   2.020       .  S
O638        C646   1.294       .  A
O638       Co658   2.061   1_545  S
O639        C647   1.277       .  A
O640        C648   1.266       .  A
O640       Co660   2.008       .  S
O641        C647   1.295       .  A
O641       Co658   2.069       .  S
O642        C648   1.267       .  A
O642       Co657   2.011   1_545  S
O643        C646   1.277       .  A
O644        C645   1.264       .  A
O644       Co659   1.999       .  S
C645        C975   1.497       .  S
C646        C895   1.498       .  S
C647        C995   1.486       .  S
C648        C926   1.498       .  S
O649        C662   1.257       .  A
O649       Co657   1.957   1_545  S
O650        C663   1.256       .  A
O650       Co658   2.010       .  S
O651        C664   1.276       .  A
O651       Co659   2.038       .  S
O652        C665   1.250       .  A
O653        C665   1.256       .  A
O653       Co658   2.005   1_545  S
O654        C664   1.258       .  A
O654       Co657   1.959       .  S
O655        C662   1.272       .  A
O655       Co660   2.023       .  S
O656        C663   1.244       .  A
Co657       O661   2.067       .  S
Co659       O661   1.954       .  S
Co660       O661   1.961   1_545  S
C662        C935   1.471       .  S
C663       C1026   1.489       .  S
C664       C1035   1.478       .  S
C665        C966   1.503       .  S
O666        C674   1.252       .  A
O666       Co686   1.978       .  S
O667        C675   1.256       .  A
O668        C676   1.276       .  A
O668       Co688   2.039       .  S
O669        C677   1.240       .  A
O669       Co689   1.977       .  S
O670        C676   1.258       .  A
O670       Co687   1.947       .  S
O671        C677   1.252       .  A
O672        C675   1.280       .  A
O672       Co689   2.042   1_455  S
O673        C674   1.252       .  A
O673       Co688   1.990   1_655  S
C674        C886   1.486       .  S
C675        C755   1.495       .  S
C676        C746   1.490       .  S
C677        C866   1.497       .  S
O678        C691   1.295       .  A
O679        C692   1.266       .  A
O679       Co687   2.011       .  S
O680        C693   1.273       .  A
O680       Co688   1.895   1_655  S
O681        C694   1.263       .  A
O681       Co689   1.986   1_455  S
O682        C694   1.268       .  A
O683        C693   1.302       .  A
O683       Co686   2.102       .  S
O684        C691   1.281       .  A
O684       Co689   1.932       .  S
O685        C692   1.265       .  A
O685       Co688   1.995       .  S
Co686       O690   2.220   1_655  S
Co687       O690   2.069       .  S
Co688       O690   1.983       .  S
C691        C835   1.488       .  S
C692        C795   1.503       .  S
C693        C815   1.498       .  S
C694        C775   1.490       .  S
C695        H696   1.106       .  S
C695        C701   1.550       .  S
C695        C700   1.547       .  S
C695        C699   1.548       .  S
C697        H698   1.111       .  S
C697        C703   1.541       .  S
C697        C702   1.533       .  S
C697        C704   1.546       .  S
C699        C702   1.375       .  D
C699       C1186   1.477       .  S
C700        C703   1.384       .  D
C700        C955   1.532       .  S
C701        C704   1.387       .  D
C701        C786   1.506       .  S
C702       C1206   1.493       .  S
C703        C946   1.485       .  S
C704        C806   1.513       .  S
C705        H706   1.104       .  S
C705        C711   1.544       .  S
C705        C710   1.558       .  S
C705        C709   1.536       .  S
C707        H708   1.111       .  S
C707        C713   1.544       .  S
C707        C712   1.551       .  S
C707        C714   1.543       .  S
C709        C712   1.378       .  D
C709       C1166   1.477       .  S
C710        C713   1.393       .  D
C710        C915   1.531       .  S
C711        C714   1.374       .  D
C711        C826   1.505       .  S
C712       C1146   1.500       .  S
C713        C906   1.502       .  S
C714        C846   1.503       .  S
C715        H716   1.099       .  S
C715        C721   1.526       .  S
C715        C720   1.543       .  S
C715        C719   1.562       .  S
C717        H718   1.109       .  S
C717        C723   1.555       .  S
C717        C722   1.531       .  S
C717        C724   1.546       .  S
C719        C722   1.384       .  D
C719       C1075   1.498       .  S
C720        C723   1.394       .  D
C720       C1046   1.528       .  S
C721        C724   1.368       .  D
C721        C735   1.498       .  S
C722       C1066   1.486       .  S
C723       C1015   1.507       .  S
C724        C766   1.503       .  S
C725        H726   1.091       .  S
C725        C731   1.540       .  S
C725        C730   1.546       .  S
C725        C729   1.544       .  S
C727        H728   1.111       .  S
C727        C733   1.552       .  S
C727        C732   1.529       .  S
C727        C734   1.542       .  S
C729        C732   1.372       .  D
C729       C1106   1.477       .  S
C730        C733   1.398       .  D
C730       C1006   1.539       .  S
C731        C734   1.380       .  D
C731        C855   1.504       .  S
C732       C1126   1.487       .  S
C733        C986   1.501       .  S
C734        C875   1.503       .  S
C735        C736   1.420       .  A
C735        C740   1.409       .  A
C736        C737   1.398       .  A
C736       Br752   1.921       .  S
C737        C738   1.398       .  A
C737        H741   1.084       .  S
C738        C742   1.471       .  S
C738        C739   1.402       .  A
C739        C740   1.396       .  A
C739       Br751   1.918       .  S
C740        H743   1.083       .  S
C742        C744   1.404       .  A
C742        C748   1.398       .  A
C744        C745   1.405       .  A
C744        H749   1.082       .  S
C745        C746   1.415       .  A
C745       Br753   1.919       .  S
C746        C747   1.414       .  A
C747        C748   1.389       .  A
C747        H750   1.082       .  S
C748       Br754   1.921       .  S
C755        C756   1.426       .  A
C755        C760   1.404       .  A
C756        C757   1.396       .  A
C756       Br772   1.927       .  S
C757        C758   1.396       .  A
C757        H761   1.083       .  S
C758        C762   1.491       .  S
C758        C759   1.417       .  A
C759        C760   1.404       .  A
C759       Br771   1.920       .  S
C760        H763   1.083       .  S
C762        C764   1.392       .  A
C762        C768   1.417       .  A
C764        C765   1.386       .  A
C764        H769   1.084       .  S
C765        C766   1.415       .  A
C765       Br773   1.897       .  S
C766        C767   1.406       .  A
C767        C768   1.413       .  A
C767        H770   1.083       .  S
C768       Br774   1.917       .  S
C775        C776   1.412       .  A
C775        C780   1.406       .  A
C776        C777   1.400       .  A
C776       Br792   1.911       .  S
C777        C778   1.402       .  A
C777        H781   1.084       .  S
C778        C782   1.495       .  S
C778        C779   1.415       .  A
C779        C780   1.409       .  A
C779       Br791   1.919       .  S
C780        H783   1.083       .  S
C782        C784   1.401       .  A
C782        C788   1.409       .  A
C784        C785   1.401       .  A
C784        H789   1.084       .  S
C785        C786   1.418       .  A
C785       Br793   1.907       .  S
C786        C787   1.409       .  A
C787        C788   1.406       .  A
C787        H790   1.083       .  S
C788       Br794   1.917       .  S
C795        C796   1.421       .  A
C795        C800   1.410       .  A
C796        C797   1.398       .  A
C796       Br812   1.924       .  S
C797        C798   1.402       .  A
C797        H801   1.084       .  S
C798        C802   1.506       .  S
C798        C799   1.416       .  A
C799        C800   1.415       .  A
C799       Br811   1.917       .  S
C800        H803   1.083       .  S
C802        C804   1.411       .  A
C802        C808   1.412       .  A
C804        C805   1.413       .  A
C804        H809   1.082       .  S
C805        C806   1.415       .  A
C805       Br813   1.916       .  S
C806        C807   1.411       .  A
C807        C808   1.398       .  A
C807        H810   1.081       .  S
C808       Br814   1.923       .  S
C815        C816   1.415       .  A
C815        C820   1.405       .  A
C816        C817   1.407       .  A
C816       Br832   1.918       .  S
C817        C818   1.407       .  A
C817        H821   1.083       .  S
C818        C822   1.505       .  S
C818        C819   1.416       .  A
C819        C820   1.406       .  A
C819       Br831   1.915       .  S
C820        H823   1.083       .  S
C822        C824   1.411       .  A
C822        C828   1.414       .  A
C824        C825   1.410       .  A
C824        H829   1.085       .  S
C825        C826   1.408       .  A
C825       Br833   1.915       .  S
C826        C827   1.406       .  A
C827        C828   1.403       .  A
C827        H830   1.086       .  S
C828       Br834   1.921       .  S
C835        C836   1.413       .  A
C835        C840   1.404       .  A
C836        C837   1.399       .  A
C836       Br852   1.922       .  S
C837        C838   1.405       .  A
C837        H841   1.084       .  S
C838        C842   1.496       .  S
C838        C839   1.415       .  A
C839        C840   1.405       .  A
C839       Br851   1.917       .  S
C840        H843   1.079       .  S
C842        C844   1.401       .  A
C842        C848   1.412       .  A
C844        C845   1.395       .  A
C844        H849   1.084       .  S
C845        C846   1.413       .  A
C845       Br853   1.902       .  S
C846        C847   1.409       .  A
C847        C848   1.408       .  A
C847        H850   1.083       .  S
C848       Br854   1.918       .  S
C855        C856   1.417       .  A
C855        C860   1.410       .  A
C856        C857   1.399       .  A
C856       Br872   1.908       .  S
C857        C858   1.401       .  A
C857        H861   1.084       .  S
C858        C862   1.494       .  S
C858        C859   1.409       .  A
C859        C860   1.407       .  A
C859       Br871   1.917       .  S
C860        H863   1.084       .  S
C862        C864   1.399       .  A
C862        C868   1.414       .  A
C864        C865   1.397       .  A
C864        H869   1.084       .  S
C865        C866   1.416       .  A
C865       Br873   1.912       .  S
C866        C867   1.409       .  A
C867        C868   1.411       .  A
C867        H870   1.083       .  S
C868       Br874   1.918       .  S
C875        C876   1.411       .  A
C875        C880   1.409       .  A
C876        C877   1.410       .  A
C876       Br892   1.915       .  S
C877        C878   1.409       .  A
C877        H881   1.083       .  S
C878        C882   1.491       .  S
C878        C879   1.408       .  A
C879        C880   1.395       .  A
C879       Br891   1.923       .  S
C880        H883   1.080       .  S
C882        C884   1.404       .  A
C882        C888   1.412       .  A
C884        C885   1.403       .  A
C884        H889   1.084       .  S
C885        C886   1.414       .  A
C885       Br893   1.920       .  S
C886        C887   1.406       .  A
C887        C888   1.402       .  A
C887        H890   1.084       .  S
C888       Br894   1.920       .  S
C895        C896   1.422       .  A
C895        C900   1.410       .  A
C896        C897   1.401       .  A
C896       Br912   1.924       .  S
C897        C898   1.399       .  A
C897        H901   1.084       .  S
C898        C902   1.490       .  S
C898        C899   1.410       .  A
C899        C900   1.408       .  A
C899       Br911   1.918       .  S
C900        H903   1.083       .  S
C902        C904   1.401       .  A
C902        C908   1.408       .  A
C904        C905   1.403       .  A
C904        H909   1.084       .  S
C905        C906   1.414       .  A
C905       Br913   1.904       .  S
C906        C907   1.407       .  A
C907        C908   1.406       .  A
C907        H910   1.083       .  S
C908       Br914   1.917       .  S
C915        C916   1.434       .  A
C915        C920   1.417       .  A
C916        C917   1.399       .  A
C916       Br932   1.914       .  S
C917        C918   1.391       .  A
C917        H921   1.084       .  S
C918        C922   1.495       .  S
C918        C919   1.409       .  A
C919        C920   1.412       .  A
C919       Br931   1.917       .  S
C920        H923   1.080       .  S
C922        C924   1.409       .  A
C922        C928   1.409       .  A
C924        C925   1.410       .  A
C924        H929   1.083       .  S
C925        C926   1.414       .  A
C925       Br933   1.918       .  S
C926        C927   1.410       .  A
C927        C928   1.402       .  A
C927        H930   1.084       .  S
C928       Br934   1.919       .  S
C935        C936   1.413       .  A
C935        C940   1.403       .  A
C936        C937   1.391       .  A
C936       Br952   1.923       .  S
C937        C938   1.396       .  A
C937        H941   1.084       .  S
C938        C942   1.471       .  S
C938        C939   1.410       .  A
C939        C940   1.403       .  A
C939       Br951   1.917       .  S
C940        H943   1.083       .  S
C942        C944   1.396       .  A
C942        C948   1.405       .  A
C944        C945   1.391       .  A
C944        H949   1.084       .  S
C945        C946   1.414       .  A
C945       Br953   1.908       .  S
C946        C947   1.406       .  A
C947        C948   1.400       .  A
C947        H950   1.083       .  S
C948       Br954   1.917       .  S
C955        C956   1.431       .  A
C955        C960   1.416       .  A
C956        C957   1.404       .  A
C956       Br972   1.912       .  S
C957        C958   1.395       .  A
C957        H961   1.084       .  S
C958        C962   1.500       .  S
C958        C959   1.409       .  A
C959        C960   1.412       .  A
C959       Br971   1.916       .  S
C960        H963   1.082       .  S
C962        C964   1.407       .  A
C962        C968   1.410       .  A
C964        C965   1.411       .  A
C964        H969   1.083       .  S
C965        C966   1.418       .  A
C965       Br973   1.919       .  S
C966        C967   1.409       .  A
C967        C968   1.404       .  A
C967        H970   1.083       .  S
C968       Br974   1.918       .  S
C975        C976   1.417       .  A
C975        C980   1.408       .  A
C976        C977   1.405       .  A
C976       Br992   1.913       .  S
C977        C978   1.402       .  A
C977        H981   1.083       .  S
C978        C982   1.494       .  S
C978        C979   1.409       .  A
C979        C980   1.406       .  A
C979       Br991   1.918       .  S
C980        H983   1.084       .  S
C982        C984   1.405       .  A
C982        C988   1.411       .  A
C984        C985   1.406       .  A
C984        H989   1.083       .  S
C985        C986   1.413       .  A
C985       Br993   1.919       .  S
C986        C987   1.407       .  A
C987        C988   1.402       .  A
C987        H990   1.082       .  S
C988       Br994   1.918       .  S
C995        C996   1.415       .  A
C995       C1000   1.402       .  A
C996        C997   1.407       .  A
C996      Br1012   1.920       .  S
C997        C998   1.405       .  A
C997       H1001   1.083       .  S
C998       C1002   1.493       .  S
C998        C999   1.413       .  A
C999       C1000   1.402       .  A
C999      Br1011   1.921       .  S
C1000      H1003   1.083       .  S
C1002      C1004   1.389       .  A
C1002      C1008   1.406       .  A
C1004      C1005   1.398       .  A
C1004      H1009   1.085       .  S
C1005      C1006   1.440       .  A
C1005     Br1013   1.918       .  S
C1006      C1007   1.419       .  A
C1007      C1008   1.412       .  A
C1007      H1010   1.081       .  S
C1008     Br1014   1.916       .  S
C1015      C1016   1.413       .  A
C1015      C1020   1.411       .  A
C1016      C1017   1.410       .  A
C1016     Br1032   1.917       .  S
C1017      C1018   1.406       .  A
C1017      H1021   1.083       .  S
C1018      C1022   1.487       .  S
C1018      C1019   1.404       .  A
C1019      C1020   1.398       .  A
C1019     Br1031   1.920       .  S
C1020      H1023   1.083       .  S
C1022      C1024   1.403       .  A
C1022      C1028   1.408       .  A
C1024      C1025   1.403       .  A
C1024      H1029   1.084       .  S
C1025      C1026   1.416       .  A
C1025     Br1033   1.922       .  S
C1026      C1027   1.407       .  A
C1027      C1028   1.405       .  A
C1027      H1030   1.084       .  S
C1028     Br1034   1.917       .  S
C1035      C1036   1.413       .  A
C1035      C1040   1.403       .  A
C1036      C1037   1.400       .  A
C1036     Br1052   1.921       .  S
C1037      C1038   1.400       .  A
C1037      H1041   1.083       .  S
C1038      C1042   1.485       .  S
C1038      C1039   1.411       .  A
C1039      C1040   1.405       .  A
C1039     Br1051   1.919       .  S
C1040      H1043   1.083       .  S
C1042      C1044   1.397       .  A
C1042      C1048   1.407       .  A
C1044      C1045   1.402       .  A
C1044      H1049   1.084       .  S
C1045      C1046   1.424       .  A
C1045     Br1053   1.924       .  S
C1046      C1047   1.412       .  A
C1047      C1048   1.402       .  A
C1047      H1050   1.075       .  S
C1048     Br1054   1.919       .  S
C1055      C1056   1.407       .  A
C1055      C1060   1.399       .  A
C1056      C1057   1.394       .  A
C1056     Br1072   1.917   1_556  S
C1057      C1058   1.402       .  A
C1057      H1061   1.083       .  S
C1058      C1062   1.470       .  S
C1058      C1059   1.413       .  A
C1059      C1060   1.392       .  A
C1059     Br1071   1.923       .  S
C1060      H1063   1.084       .  S
C1062      C1064   1.404       .  A
C1062      C1068   1.399       .  A
C1064      C1065   1.395       .  A
C1064      H1069   1.084       .  S
C1065      C1066   1.413       .  A
C1065     Br1073   1.914       .  S
C1066      C1067   1.412       .  A
C1067      C1068   1.391       .  A
C1067      H1070   1.081       .  S
C1068     Br1074   1.920       .  S
C1075      C1076   1.424       .  A
C1075      C1080   1.410       .  A
C1076      C1077   1.398       .  A
C1076     Br1092   1.911       .  S
C1077      C1078   1.396       .  A
C1077      H1081   1.084       .  S
C1078      C1082   1.465       .  S
C1078      C1079   1.399       .  A
C1079      C1080   1.390       .  A
C1079     Br1091   1.920       .  S
C1080      H1083   1.083       .  S
C1082      C1084   1.397       .  A
C1082      C1088   1.404       .  A
C1084      C1085   1.391       .  A
C1084      H1089   1.084       .  S
C1085      C1086   1.412       .  A
C1085     Br1093   1.919       .  S
C1086      C1087   1.406       .  A
C1087      C1088   1.398       .  A
C1087      H1090   1.083       .  S
C1088     Br1094   1.917       .  S
C1095      C1096   1.406       .  A
C1095      C1100   1.404       .  A
C1096      C1097   1.401       .  A
C1096     Br1112   1.917       .  S
C1097      C1098   1.406       .  A
C1097      H1101   1.083       .  S
C1098      C1102   1.466       .  S
C1098      C1099   1.403       .  A
C1099      C1100   1.387       .  A
C1099     Br1111   1.922       .  S
C1100      H1103   1.081       .  S
C1102      C1104   1.400       .  A
C1102      C1108   1.403       .  A
C1104      C1105   1.387       .  A
C1104      H1109   1.084       .  S
C1105      C1106   1.407       .  A
C1105     Br1113   1.913       .  S
C1106      C1107   1.409       .  A
C1107      C1108   1.397       .  A
C1107      H1110   1.082       .  S
C1108     Br1114   1.917       .  S
C1115      C1116   1.421       .  A
C1115      C1120   1.405       .  A
C1116      C1117   1.393       .  A
C1116     Br1132   1.924       .  S
C1117      C1118   1.396       .  A
C1117      H1121   1.084       .  S
C1118      C1122   1.470       .  S
C1118      C1119   1.406       .  A
C1119      C1120   1.395       .  A
C1119     Br1131   1.919       .  S
C1120      H1123   1.083       .  S
C1122      C1124   1.398       .  A
C1122      C1128   1.404       .  A
C1124      C1125   1.390       .  A
C1124      H1129   1.084       .  S
C1125      C1126   1.412       .  A
C1125     Br1133   1.910       .  S
C1126      C1127   1.408       .  A
C1127      C1128   1.398       .  A
C1127      H1130   1.080       .  S
C1128     Br1134   1.917       .  S
C1135      C1136   1.407       .  A
C1135      C1140   1.403       .  A
C1136      C1137   1.407       .  A
C1136     Br1152   1.910       .  S
C1137      C1138   1.408       .  A
C1137      H1141   1.083       .  S
C1138      C1142   1.487       .  S
C1138      C1139   1.410       .  A
C1139      C1140   1.393       .  A
C1139     Br1151   1.920       .  S
C1140      H1143   1.084       .  S
C1142      C1144   1.401       .  A
C1142      C1148   1.409       .  A
C1144      C1145   1.401       .  A
C1144      H1149   1.084       .  S
C1145      C1146   1.421       .  A
C1145     Br1153   1.918       .  S
C1146      C1147   1.406       .  A
C1147      C1148   1.399       .  A
C1147      H1150   1.083       .  S
C1148     Br1154   1.919       .  S
C1155      C1156   1.413       .  A
C1155      C1160   1.406       .  A
C1156      C1157   1.393       .  A
C1156     Br1172   1.923       .  S
C1157      C1158   1.399       .  A
C1157      H1161   1.084       .  S
C1158      C1162   1.457       .  S
C1158      C1159   1.401       .  A
C1159      C1160   1.389       .  A
C1159     Br1171   1.919       .  S
C1160      H1163   1.084       .  S
C1162      C1164   1.397       .  A
C1162      C1168   1.400       .  A
C1164      C1165   1.385       .  A
C1164      H1169   1.084       .  S
C1165      C1166   1.410       .  A
C1165     Br1173   1.908       .  S
C1166      C1167   1.409       .  A
C1167      C1168   1.395       .  A
C1167      H1170   1.078       .  S
C1168     Br1174   1.917       .  S
C1175      C1176   1.421       .  A
C1175      C1180   1.406       .  A
C1176      C1177   1.386       .  A
C1176     Br1192   1.927       .  S
C1177      C1178   1.392       .  A
C1177      H1181   1.084       .  S
C1178      C1182   1.451       .  S
C1178      C1179   1.401       .  A
C1179      C1180   1.390       .  A
C1179     Br1191   1.918       .  S
C1180      H1183   1.083       .  S
C1182      C1184   1.394       .  A
C1182      C1188   1.397       .  A
C1184      C1185   1.389       .  A
C1184      H1189   1.085       .  S
C1185      C1186   1.418       .  A
C1185     Br1193   1.910       .  S
C1186      C1187   1.407       .  A
C1187      C1188   1.388       .  A
C1187      H1190   1.082       .  S
C1188     Br1194   1.918       .  S
C1195      C1196   1.410       .  A
C1195      C1200   1.405       .  A
C1196      C1197   1.401       .  A
C1196     Br1212   1.918       .  S
C1197      C1198   1.404       .  A
C1197      H1201   1.084       .  S
C1198      C1202   1.473       .  S
C1198      C1199   1.405       .  A
C1199      C1200   1.394       .  A
C1199     Br1211   1.921       .  S
C1200      H1203   1.084       .  S
C1202      C1204   1.396       .  A
C1202      C1208   1.403       .  A
C1204      C1205   1.393       .  A
C1204      H1209   1.084       .  S
C1205      C1206   1.415       .  A
C1205     Br1213   1.907       .  S
C1206      C1207   1.410       .  A
C1207      C1208   1.401       .  A
C1207      H1210   1.082       .  S
C1208     Br1214   1.916       .  S
