geometry optimzed in LAMMPS
_audit_creation_date              2020-11-30 
_audit_creation_method            'lammps2cif' 
_symmetry_space_group_name_H-M    'P1' 
_symmetry_Int_Tables_number       1 
_symmetry_cell_setting            triclinic 
loop_ 
_symmetry_equiv_pos_as_xyz 
  x,y,z 
_cell_length_a                    30.05813285 
_cell_length_b                    29.9896988930648 
_cell_length_c                    36.65456045156267 
_cell_angle_alpha                 90.91667402637343 
_cell_angle_beta                  90.34706916553091 
_cell_angle_gamma                 120.00446959030866 
loop_ 
_atom_site_label 
_atom_site_type_symbol 
_atom_site_fract_x 
_atom_site_fract_y 
_atom_site_fract_z 
_atom_site_charge 
N1          N  0.71931240  0.00703555  0.99778834    -0.02400
C2          C  0.69886210  0.01874359  0.46888693     0.00200
C3          C  0.65683591  0.02263533  0.47929912    -0.22700
C4          C  0.65085482  0.01295261  0.01581674    -0.22900
C5          C  0.68943372  0.00347995  0.02653148     0.00100
H6          H  0.63255384  0.03072460  0.46193254     0.13900
H7          H  0.62161035  0.01299468  0.03291719     0.13900
O8          O  0.58068114  0.05045319  0.23957926    -0.56700
C9          C  0.52699052  0.90368908  0.25641917     0.75900
O10         O  0.69534862  0.02056480  0.20380237    -0.57900
C11         C  0.62136144  0.09388055  0.24300730     0.75900
C12         C  0.67818272  0.01085327  0.31745108     0.78300
Cd13       Cd  0.62467369  0.99923976  0.24876611     1.37500
O14         O  0.53091773  0.94711700  0.26317011    -0.56700
O15         O  0.65254448  0.03253630  0.31035663    -0.55500
C16         C  0.66499002  0.99300426  0.17826893     0.78300
O17         O  0.67980885  0.98209467  0.29242665    -0.57900
O18         O  0.56817276  0.90468138  0.24775264    -0.56300
O19         O  0.66275222  0.09302369  0.24672743    -0.56300
O20         O  0.61787727  0.96875227  0.18585086    -0.55500
N21         N  0.95885422  0.76263169  0.97502974    -0.02400
C22         C  0.96107336  0.73449294  0.00292818     0.00200
C23         C  0.96416451  0.69278425  0.98966624    -0.22700
C24         C  0.96400479  0.69524062  0.45227690    -0.22900
C25         C  0.96092903  0.73840005  0.44403545     0.00100
H26         H  0.96692982  0.66408906  0.00554615     0.13900
H27         H  0.96563419  0.66827476  0.43309392     0.13900
O28         O  0.01166770  0.63404925  0.21139395    -0.56700
C29         C  0.86480013  0.57057255  0.22546203     0.75900
O30         O  0.98900343  0.74513753  0.27024255    -0.57900
C31         C  0.04640622  0.66137069  0.23480678     0.75900
C32         C  0.96421336  0.72112867  0.15668417     0.78300
Cd33       Cd  0.95611774  0.67180211  0.22574987     1.37500
O34         O  0.90474399  0.58050050  0.24369675    -0.56700
O35         O  0.92761696  0.71096473  0.17804603    -0.55500
C36         C  0.95153131  0.72357252  0.29163207     0.78300
O37         O  0.99855654  0.71235821  0.16855032    -0.57900
O38         O  0.86828902  0.60645124  0.20583322    -0.56300
O39         O  0.03831597  0.69178480  0.25421448    -0.56300
O40         O  0.91403416  0.68134664  0.28038560    -0.55500
C41         C  0.57845262  0.33808223  0.25312948     0.04200
C42         C  0.57699847  0.29044965  0.25282332    -0.11900
C43         C  0.62156851  0.28763092  0.24611456     0.01700
C44         C  0.66804552  0.33341354  0.24031086    -0.10400
C45         C  0.67034080  0.38134515  0.24072777     0.04200
C46         C  0.62521989  0.38329736  0.24682967    -0.09900
H47         H  0.54111544  0.25562537  0.25786161     0.09800
H48         H  0.70256650  0.33175389  0.23478642     0.07400
H49         H  0.62674761  0.42017180  0.24778282     0.07200
C50         C  0.28555153  0.61449964  0.25837527     0.04200
C51         C  0.33182752  0.66194506  0.26044234    -0.11900
C52         C  0.33253625  0.70900851  0.25661613     0.01700
C53         C  0.28529336  0.70778466  0.25220377    -0.10400
C54         C  0.23847007  0.66073120  0.25088032     0.04200
C55         C  0.23908426  0.61435512  0.25336944    -0.09900
H56         H  0.36749947  0.66202335  0.26472449     0.09800
H57         H  0.28481749  0.74335721  0.24888307     0.07400
H58         H  0.20317080  0.57813148  0.25239802     0.07200
N59         N  0.20014864  0.22385259  0.02705066    -0.02400
C60         C  0.23027764  0.24207712  0.05773976     0.00200
C61         C  0.27772855  0.28346369  0.04981046    -0.22700
C62         C  0.27713674  0.29174244  0.51322226    -0.22900
C63         C  0.22941674  0.25497531  0.49979831     0.00100
H64         H  0.30874215  0.30652728  0.06896825     0.13900
H65         H  0.30799284  0.32193091  0.49800412     0.13900
O66         O  0.37413216  0.36445367  0.25370697    -0.56700
C67         C  0.28762185  0.42203121  0.26643012     0.75900
O68         O  0.21371387  0.27891940  0.22888868    -0.57900
C69         C  0.38769476  0.33888674  0.27340429     0.75900
C70         C  0.24021744  0.28697510  0.34691006     0.78300
Cd71       Cd  0.28482960  0.32449689  0.27560999     1.37500
O72         O  0.32096497  0.41844246  0.28546721    -0.56700
O73         O  0.26098346  0.33344405  0.33777383    -0.55500
C74         C  0.23789591  0.26245553  0.20998270     0.78300
O75         O  0.23707928  0.25552366  0.32214998    -0.57900
O76         O  0.25389387  0.38087480  0.25069450    -0.56300
O77         O  0.35468242  0.30892365  0.29570776    -0.56300
O78         O  0.28018355  0.27059340  0.22335554    -0.55500
C79         C  0.95210031  0.95031325  0.99365033     0.04200
C80         C  0.99869476  0.99598951  0.00120876    -0.11900
C81         C  0.00018210  0.04307246  0.00754533     0.01700
C82         C  0.95387220  0.04389422  0.00719638    -0.10400
C83         C  0.90680300  0.99890965  0.99925162     0.04200
C84         C  0.90638160  0.95243190  0.99225477    -0.09900
H85         H  0.03417466  0.99499436  0.00208294     0.09800
H86         H  0.95436215  0.07948758  0.01375103     0.07400
H87         H  0.87044622  0.91817485  0.98491026     0.07200
C88         C  0.21805917  0.29862273  0.44712139    -0.20200
C89         C  0.21507237  0.25391371  0.46093340    -0.06700
C90         C  0.21168500  0.21584431  0.43636031     0.30600
C91         C  0.21594100  0.22481519  0.39861960    -0.20200
C92         C  0.22370840  0.27188178  0.38509895    -0.08200
C93         C  0.22214896  0.30760349  0.40973494     0.30600
F94         F  0.22800404  0.35295319  0.39807283    -0.18800
H95         H  0.22100570  0.32850299  0.46566833     0.19000
H96         H  0.21678066  0.19656286  0.38032243     0.19000
F97         F  0.20906856  0.17231670  0.44897985    -0.18800
C98         C  0.24413127  0.21186478  0.11675417    -0.20200
C99         C  0.21526372  0.22754980  0.09597558    -0.08200
C100        C  0.18459873  0.24384342  0.11401431     0.30600
C101        C  0.18748903  0.24979964  0.15219428    -0.20200
C102        C  0.22115218  0.23973993  0.17267862    -0.08200
C103        C  0.24675727  0.21733813  0.15475041     0.30600
F104        F  0.27817700  0.20516355  0.17352020    -0.18800
H105        H  0.26830148  0.19957658  0.10327520     0.19000
H106        H  0.16730346  0.26701913  0.16524285     0.19000
F107        F  0.15703652  0.26012976  0.09456738    -0.18800
C108        C  0.08794128  0.08996451  0.03671530    -0.20200
C109        C  0.05039303  0.09108728  0.01434942    -0.08200
C110        C  0.06249087  0.13754629  0.49719842     0.30600
C111        C  0.11109064  0.18135481  0.50228131    -0.20200
C112        C  0.14900229  0.17959504  0.02384866    -0.08200
C113        C  0.13680435  0.13327890  0.04102932     0.30600
F114        F  0.17285193  0.12883448  0.06046821    -0.18800
H115        H  0.07980272  0.05498871  0.05041292     0.19000
H116        H  0.11931657  0.21652272  0.48893511     0.19000
F117        F  0.02831543  0.14003121  0.47415542    -0.18800
C118        C  0.25675868  0.52446968  0.23565491    -0.20200
C119        C  0.28587164  0.56504590  0.26069856    -0.08200
C120        C  0.31552769  0.55804586  0.28745378     0.30600
C121        C  0.31657779  0.51193616  0.28859764    -0.20200
C122        C  0.28750544  0.47136933  0.26358232    -0.08200
C123        C  0.25736053  0.47809062  0.23704592     0.30600
F124        F  0.22891202  0.44019681  0.21212412    -0.18800
H125        H  0.23390877  0.52891860  0.21460402     0.19000
H126        H  0.33945889  0.50760056  0.30968234     0.19000
F127        F  0.34222739  0.59509043  0.31331327    -0.18800
C128        C  0.51670233  0.36744736  0.23567712    -0.20200
C129        C  0.53097690  0.34055077  0.25966245    -0.08200
C130        C  0.49922611  0.31555592  0.28934237     0.30600
C131        C  0.45343571  0.31631574  0.29417949    -0.20200
C132        C  0.43843322  0.34217350  0.26967914    -0.08200
C133        C  0.47096746  0.36829970  0.24050160     0.30600
F134        F  0.45798750  0.39338969  0.21590757    -0.18800
H135        H  0.54047248  0.38682990  0.21255960     0.19000
H136        H  0.42940426  0.29615068  0.31700626     0.19000
F137        F  0.51278612  0.29091167  0.31393030    -0.18800
C138        C  0.13027579  0.68921398  0.26678483    -0.20200
C139        C  0.09444867  0.65910416  0.23923135    -0.08200
C140        C  0.10602895  0.62862083  0.21588027     0.30600
C141        C  0.15266304  0.62898909  0.21992709    -0.20200
C142        C  0.18876244  0.65993257  0.24705747    -0.08200
C143        C  0.17681253  0.68965161  0.27072509     0.30600
F144        F  0.20968393  0.71829446  0.29823880    -0.18800
H145        H  0.12237843  0.71272224  0.28539294     0.19000
H146        H  0.16100445  0.60569277  0.20144562     0.19000
F147        F  0.07279833  0.59903216  0.18882070    -0.18800
C148        C  0.77251575  0.51230637  0.20755997    -0.20200
C149        C  0.81603419  0.52070623  0.22785920    -0.08200
C150        C  0.81130345  0.48234438  0.25180180     0.30600
C151        C  0.76397244  0.43723326  0.25561890    -0.20200
C152        C  0.72034816  0.42927981  0.23578328    -0.08200
C153        C  0.72515906  0.46717044  0.21143737     0.30600
F154        F  0.68433489  0.46023685  0.19092795    -0.18800
H155        H  0.77494264  0.54100222  0.18885601     0.19000
H156        H  0.76117073  0.40874624  0.27467368     0.19000
F157        F  0.85203924  0.48862232  0.27209722    -0.18800
C158        C  0.00294584  0.77610796  0.38578696    -0.20200
C159        C  0.95778290  0.75214466  0.40607189    -0.08200
C160        C  0.91011390  0.72759666  0.38766519     0.30600
C161        C  0.90793014  0.72294755  0.34953696    -0.20200
C162        C  0.95332107  0.74301468  0.32930596    -0.08200
C163        C  0.00088288  0.77239837  0.34766429     0.30600
F164        F  0.04568183  0.79198241  0.32931691    -0.18800
H165        H  0.03999717  0.79356029  0.39952245     0.19000
H166        H  0.87091130  0.70009246  0.33611062     0.19000
F167        F  0.86593425  0.70296187  0.40670292    -0.18800
C168        C  0.91885732  0.72951651  0.06210045    -0.20200
C169        C  0.96415319  0.74668833  0.04233897    -0.08200
C170        C  0.01064076  0.76281671  0.06129166     0.30600
C171        C  0.01115547  0.75860526  0.09920215    -0.20200
C172        C  0.96530392  0.73821569  0.11884745    -0.08200
C173        C  0.91940258  0.72606980  0.10013836     0.30600
F174        F  0.87414463  0.70563944  0.11795104    -0.18800
H175        H  0.88230582  0.71457047  0.04793424     0.19000
H176        H  0.04698627  0.76814314  0.11290398     0.19000
F177        F  0.05474194  0.77804940  0.04274229    -0.18800
C178        C  0.91492166  0.80871988  0.99619903    -0.20200
C179        C  0.95585438  0.80900071  0.97791057    -0.08200
C180        C  0.99447005  0.85540745  0.46349305     0.30600
C181        C  0.99209771  0.90061341  0.46771286    -0.20200
C182        C  0.95184414  0.90086710  0.98711674    -0.08200
C183        C  0.91304332  0.85408400  0.00124615     0.30600
F184        F  0.87435292  0.85227919  0.02124168    -0.18800
H185        H  0.88440581  0.77321871  0.00680294     0.19000
H186        H  0.02219237  0.93560709  0.45601991     0.19000
F187        F  0.03537293  0.85738611  0.44657346    -0.18800
C188        C  0.47299093  0.80987077  0.24072808    -0.20200
C189        C  0.47717403  0.85429080  0.25749783    -0.08200
C190        C  0.43328110  0.85079337  0.27387117     0.30600
C191        C  0.38673809  0.80368956  0.27374618    -0.20200
C192        C  0.38249315  0.75911697  0.25684359    -0.08200
C193        C  0.42641618  0.76318272  0.23993557     0.30600
F194        F  0.42420782  0.72266164  0.22126856    -0.18800
H195        H  0.50575376  0.81148037  0.22728230     0.19000
H196        H  0.35404888  0.80207772  0.28726106     0.19000
F197        F  0.43532831  0.89263463  0.29036568    -0.18800
C198        C  0.66003649  0.23326441  0.26273659    -0.20200
C199        C  0.62026398  0.23727227  0.24559872    -0.08200
C200        C  0.58041796  0.19331219  0.22764225     0.30600
C201        C  0.58063065  0.14664260  0.22704676    -0.20200
C202        C  0.62094411  0.14311172  0.24366934    -0.08200
C203        C  0.66061997  0.18696571  0.26170196     0.30600
F204        F  0.69940308  0.18484858  0.27926073    -0.18800
H205        H  0.69070192  0.26607456  0.27731851     0.19000
H206        H  0.54972411  0.11345796  0.21294908     0.19000
F207        F  0.54221224  0.19579474  0.20955697    -0.18800
C208        C  0.73158282  0.03409701  0.08757149    -0.20200
C209        C  0.69584893  0.99365200  0.06491407    -0.08200
C210        C  0.65634329  0.94933478  0.08073906     0.30600
C211        C  0.64962447  0.94762050  0.11838482    -0.20200
C212        C  0.68190320  0.99022597  0.14089230    -0.08200
C213        C  0.72484675  0.03245814  0.12550095     0.30600
F214        F  0.75678961  0.07439995  0.14636757    -0.18800
H215        H  0.76163162  0.06894128  0.07566641     0.19000
H216        H  0.61672219  0.91437765  0.12963217     0.19000
F217        F  0.62109767  0.90984648  0.05936690    -0.18800
C218        C  0.72424902  0.06614882  0.41134323    -0.20200
C219        C  0.71362985  0.02178782  0.43030225    -0.08200
C220        C  0.70345045  0.97700860  0.41057378     0.30600
C221        C  0.69778961  0.97504678  0.37243493    -0.20200
C222        C  0.70188642  0.01762767  0.35400662    -0.08200
C223        C  0.71872621  0.06428658  0.37345859     0.30600
F224        F  0.72533783  0.10686873  0.35618967    -0.18800
H225        H  0.73226001  0.10094221  0.42616922     0.19000
H226        H  0.68493144  0.93881774  0.35793596     0.19000
F227        F  0.69251188  0.93343684  0.42837657    -0.18800
C228        C  0.80970201  0.04217779  0.98086625    -0.20200
C229        C  0.76581882  0.00417466  0.99814288    -0.08200
C230        C  0.76813593  0.96358111  0.51516239     0.30600
C231        C  0.81393426  0.96199771  0.51535639    -0.20200
C232        C  0.85807935  0.00048229  0.99837838    -0.08200
C233        C  0.85521800  0.04032914  0.98069510     0.30600
F234        F  0.89603989  0.07691412  0.96247952    -0.18800
H235        H  0.80875116  0.07369483  0.96757349     0.19000
H236        H  0.81500340  0.93076434  0.52904143     0.19000
F237        F  0.72593355  0.92484579  0.53068772    -0.18800
N238        N  0.71923797  0.00687621  0.49778764    -0.02400
C239        C  0.69895552  0.01893306  0.96889028     0.00200
C240        C  0.65697305  0.02289779  0.97931110    -0.22700
C241        C  0.65071089  0.01267263  0.51580319    -0.22900
C242        C  0.68932934  0.00326215  0.52652422     0.00100
H243        H  0.63271224  0.03102136  0.96194870     0.13900
H244        H  0.62144123  0.01267067  0.53289908     0.13900
O245        O  0.58068370  0.05044222  0.73961050    -0.56700
C246        C  0.52701451  0.90372361  0.75641798     0.75900
O247        O  0.69535595  0.02056447  0.70377527    -0.57900
C248        C  0.62137028  0.09387656  0.74296491     0.75900
C249        C  0.67823876  0.01093458  0.81744408     0.78300
Cd250      Cd  0.62470839  0.99925419  0.74875629     1.37500
O251        O  0.53093860  0.94716113  0.76311994    -0.56700
O252        O  0.65264582  0.03265467  0.81031765    -0.55500
C253        C  0.66499224  0.99293561  0.67826613     0.78300
O254        O  0.67981325  0.98210973  0.79244966    -0.57900
O255        O  0.56820609  0.90469864  0.74780519    -0.56300
O256        O  0.66277685  0.09303305  0.74661698    -0.56300
O257        O  0.61788773  0.96865435  0.68586861    -0.55500
N258        N  0.95903344  0.76276617  0.47500962    -0.02400
C259        C  0.96129661  0.73463550  0.50289747     0.00200
C260        C  0.96446697  0.69297790  0.48962033    -0.22700
C261        C  0.96369255  0.69502101  0.95232131    -0.22900
C262        C  0.96069206  0.73821704  0.94406354     0.00100
H263        H  0.96727182  0.66429635  0.50548940     0.13900
H264        H  0.96527116  0.66801694  0.93314820     0.13900
O265        O  0.01160998  0.63394519  0.71144055    -0.56700
C266        C  0.86478017  0.57055536  0.72544361     0.75900
O267        O  0.98896204  0.74506048  0.77028021    -0.57900
C268        C  0.04639421  0.66134878  0.73480317     0.75900
C269        C  0.96424301  0.72111659  0.65665627     0.78300
Cd270      Cd  0.95610406  0.67178008  0.72573183     1.37500
O271        O  0.90472138  0.58048287  0.74368202    -0.56700
O272        O  0.92763082  0.71094688  0.67800407    -0.55500
C273        C  0.95145431  0.72348166  0.79163880     0.78300
O274        O  0.99857630  0.71234269  0.66853772    -0.57900
O275        O  0.86827617  0.60643058  0.70580677    -0.56300
O276        O  0.03834856  0.69184304  0.75415169    -0.56300
O277        O  0.91395863  0.68128500  0.78034920    -0.55500
C278        C  0.57842609  0.33805795  0.75310498     0.04200
C279        C  0.57697330  0.29042578  0.75279212    -0.11900
C280        C  0.62154536  0.28761039  0.74608412     0.01700
C281        C  0.66802211  0.33339625  0.74028535    -0.10400
C282        C  0.67031663  0.38132756  0.74071041     0.04200
C283        C  0.62519440  0.38327625  0.74681419    -0.09900
H284        H  0.54109018  0.25559971  0.75782545     0.09800
H285        H  0.70254397  0.33173980  0.73475843     0.07400
H286        H  0.62672136  0.42015003  0.74777467     0.07200
C287        C  0.28558651  0.61454016  0.75841592     0.04200
C288        C  0.33185739  0.66199290  0.76046202    -0.11900
C289        C  0.33255182  0.70904868  0.75662330     0.01700
C290        C  0.28530042  0.70781002  0.75221675    -0.10400
C291        C  0.23848143  0.66075011  0.75091249     0.04200
C292        C  0.23911043  0.61438292  0.75341923    -0.09900
H293        H  0.36753659  0.66208351  0.76473513     0.09800
H294        H  0.28481486  0.74337582  0.74888367     0.07400
H295        H  0.20320099  0.57815535  0.75246385     0.07200
N296        N  0.20015559  0.22393182  0.52704652    -0.02400
C297        C  0.23030858  0.24215124  0.55772514     0.00200
C298        C  0.27777063  0.28350600  0.54977657    -0.22700
C299        C  0.27711274  0.29171359  0.01325729    -0.22900
C300        C  0.22941459  0.25492297  0.99981542     0.00100
H301        H  0.30880548  0.30655943  0.56892257     0.13900
H302        H  0.30796448  0.32192684  0.99805227     0.13900
O303        O  0.37412804  0.36447413  0.75371676    -0.56700
C304        C  0.28763462  0.42205478  0.76647873     0.75900
O305        O  0.21376999  0.27906130  0.72886266    -0.57900
C306        C  0.38768284  0.33888462  0.77339645     0.75900
C307        C  0.24022698  0.28696524  0.84693378     0.78300
Cd308      Cd  0.28482877  0.32450899  0.77563419     1.37500
O309        O  0.32101096  0.41846937  0.78547741    -0.56700
O310        O  0.26105698  0.33344835  0.83782282    -0.55500
C311        C  0.23789931  0.26250380  0.70998997     0.78300
O312        O  0.23702417  0.25551394  0.82215135    -0.57900
O313        O  0.25386421  0.38088946  0.75077707    -0.56300
O314        O  0.35466937  0.30890917  0.79569395    -0.56300
O315        O  0.28012284  0.27052185  0.72340715    -0.55500
C316        C  0.95216459  0.95038126  0.49366690     0.04200
C317        C  0.99874291  0.99607190  0.50122645    -0.11900
C318        C  0.00019867  0.04313967  0.50756602     0.01700
C319        C  0.95387326  0.04393051  0.50721274    -0.10400
C320        C  0.90681966  0.99893072  0.49926070     0.04200
C321        C  0.90643023  0.95246770  0.49226641    -0.09900
H322        H  0.03423399  0.99509787  0.50209928     0.09800
H323        H  0.95433910  0.07950996  0.51377349     0.07400
H324        H  0.87050801  0.91819417  0.48492210     0.07200
C325        C  0.21804442  0.29856765  0.94714309    -0.20200
C326        C  0.21508724  0.25386896  0.96094846    -0.06700
C327        C  0.21172464  0.21581451  0.93637137     0.30600
C328        C  0.21597570  0.22479316  0.89863187    -0.20200
C329        C  0.22371512  0.27185297  0.88511839    -0.08200
C330        C  0.22213003  0.30755587  0.90975828     0.30600
F331        F  0.22794974  0.35289314  0.89809990    -0.18800
H332        H  0.22096673  0.32843400  0.96569393     0.19000
H333        H  0.21683661  0.19655612  0.88033041     0.19000
F334        F  0.20913558  0.17229665  0.94898575    -0.18800
C335        C  0.24414979  0.21193972  0.61674862    -0.20200
C336        C  0.21530823  0.22765423  0.59596779    -0.08200
C337        C  0.18466730  0.24397910  0.61400450     0.30600
C338        C  0.18754878  0.24992499  0.65218477    -0.20200
C339        C  0.22117711  0.23982142  0.67267438    -0.08200
C340        C  0.24676271  0.21739778  0.65474647     0.30600
F341        F  0.27814715  0.20517890  0.67351872    -0.18800
H342        H  0.26830171  0.19962739  0.60327132     0.19000
H343        H  0.16737846  0.26716197  0.66523155     0.19000
F344        F  0.15713396  0.26029792  0.59455625    -0.18800
C345        C  0.08795083  0.09005266  0.53673929    -0.20200
C346        C  0.05039439  0.09116858  0.51437937    -0.08200
C347        C  0.06250540  0.13746205  0.99715879     0.30600
C348        C  0.11110185  0.18126923  0.00225291    -0.20200
C349        C  0.14900300  0.17968109  0.52386293    -0.08200
C350        C  0.13681216  0.13336870  0.54104618     0.30600
F351        F  0.17286677  0.12892663  0.56047732    -0.18800
H352        H  0.07982211  0.05507820  0.55043463     0.19000
H353        H  0.11933268  0.21643780  0.98890594     0.19000
F354        F  0.02834707  0.13994522  0.97409705    -0.18800
C355        C  0.25676373  0.52449326  0.73571988    -0.20200
C356        C  0.28591688  0.56508913  0.76074041    -0.08200
C357        C  0.31561161  0.55810456  0.78747365     0.30600
C358        C  0.31665063  0.51198774  0.78862086    -0.20200
C359        C  0.28753089  0.47140009  0.76363113    -0.08200
C360        C  0.25735442  0.47810927  0.73711513     0.30600
F361        F  0.22886266  0.44019727  0.71221623    -0.18800
H362        H  0.23388662  0.52892854  0.71468349     0.19000
H363        H  0.33955997  0.50766299  0.80968879     0.19000
F364        F  0.34235868  0.59516933  0.81331051    -0.18800
C365        C  0.51668727  0.36744359  0.73566352    -0.20200
C366        C  0.53094908  0.34052425  0.75963761    -0.08200
C367        C  0.49918516  0.31550633  0.78930677     0.30600
C368        C  0.45340117  0.31627531  0.79414834    -0.20200
C369        C  0.43841392  0.34215991  0.76966154    -0.08200
C370        C  0.47095449  0.36829970  0.74049026     0.30600
F371        F  0.45798207  0.39340503  0.71590421    -0.18800
H372        H  0.54046547  0.38684072  0.71255240     0.19000
H373        H  0.42936218  0.29609557  0.81696824     0.19000
F374        F  0.51272509  0.29082973  0.81388070    -0.18800
C375        C  0.13027850  0.68923836  0.76677355    -0.20200
C376        C  0.09443848  0.65908560  0.73923902    -0.08200
C377        C  0.10600971  0.62856636  0.71591814     0.30600
C378        C  0.15264985  0.62894639  0.71997336    -0.20200
C379        C  0.18876341  0.65993432  0.74708385    -0.08200
C380        C  0.17681849  0.68968444  0.77072415     0.30600
F381        F  0.20969787  0.71836719  0.79822251    -0.18800
H382        H  0.12238766  0.71277284  0.78536031     0.19000
H383        H  0.16098517  0.60562489  0.70151246     0.19000
F384        F  0.07276726  0.59893578  0.68887712    -0.18800
C385        C  0.77248666  0.51230140  0.70755653    -0.20200
C386        C  0.81601027  0.52069253  0.72784485    -0.08200
C387        C  0.81128327  0.48232299  0.75177847     0.30600
C388        C  0.76395205  0.43721173  0.75559600    -0.20200
C389        C  0.72032356  0.42926514  0.73576919    -0.08200
C390        C  0.72513034  0.46716451  0.71143318     0.30600
F391        F  0.68430311  0.46023709  0.69093041    -0.18800
H392        H  0.77490993  0.54100344  0.68886024     0.19000
H393        H  0.76115443  0.40871842  0.77464278     0.19000
F394        F  0.85202459  0.48859101  0.77206210    -0.18800
C395        C  0.00275285  0.77596692  0.88583215    -0.20200
C396        C  0.95757050  0.75195670  0.90609385    -0.08200
C397        C  0.90992105  0.72736638  0.88766157     0.30600
C398        C  0.90777956  0.72274722  0.84953238    -0.20200
C399        C  0.95319347  0.74287332  0.82932320    -0.08200
C400        C  0.00073154  0.77227711  0.84770805     0.30600
F401        F  0.04555292  0.79190977  0.82938476    -0.18800
H402        H  0.03979222  0.79344108  0.89958590     0.19000
H403        H  0.87077789  0.69987102  0.83608772     0.19000
F404        F  0.86572524  0.70266885  0.90667552    -0.18800
C405        C  0.91898018  0.72952590  0.56204427    -0.20200
C406        C  0.96431194  0.74677626  0.54231392    -0.08200
C407        C  0.01078295  0.76293100  0.56129746     0.30600
C408        C  0.01124926  0.75867448  0.59920662    -0.20200
C409        C  0.96536644  0.73822042  0.61881992    -0.08200
C410        C  0.91947701  0.72604050  0.60008036     0.30600
F411        F  0.87419008  0.70554126  0.61785990    -0.18800
H412        H  0.88244229  0.71455006  0.54785339     0.19000
H413        H  0.04707153  0.76823753  0.61293231     0.19000
F414        F  0.05492111  0.77824164  0.54277806    -0.18800
C415        C  0.91507819  0.80881585  0.49622274    -0.20200
C416        C  0.95600168  0.80911746  0.47790450    -0.08200
C417        C  0.99435810  0.85528374  0.96351634     0.30600
C418        C  0.99201048  0.90050474  0.96772405    -0.20200
C419        C  0.95194086  0.90095327  0.48713250    -0.08200
C420        C  0.91317824  0.85416691  0.50128282     0.30600
F421        F  0.87450687  0.85234934  0.52131000    -0.18800
H422        H  0.88458672  0.77331169  0.50683760     0.19000
H423        H  0.02213295  0.93549204  0.95604335     0.19000
F424        F  0.03527067  0.85724085  0.94662775    -0.18800
C425        C  0.47300420  0.80990994  0.74072079    -0.20200
C426        C  0.47719113  0.85433250  0.75748845    -0.08200
C427        C  0.43329518  0.85084549  0.77384851     0.30600
C428        C  0.38674968  0.80374294  0.77372601    -0.20200
C429        C  0.38250396  0.75916368  0.75683340    -0.08200
C430        C  0.42642491  0.76322620  0.73992401     0.30600
F431        F  0.42420974  0.72270552  0.72125192    -0.18800
H432        H  0.50576760  0.81151527  0.72727854     0.19000
H433        H  0.35406066  0.80213684  0.78723664     0.19000
F434        F  0.43534380  0.89269483  0.79033058    -0.18800
C435        C  0.66002924  0.23325347  0.76269321    -0.20200
C436        C  0.62024532  0.23725314  0.74556572    -0.08200
C437        C  0.58039484  0.19328705  0.72761683     0.30600
C438        C  0.58061571  0.14662131  0.72701847    -0.20200
C439        C  0.62094369  0.14310205  0.74362694    -0.08200
C440        C  0.66062301  0.18696031  0.76165190     0.30600
F441        F  0.69941754  0.18485053  0.77919934    -0.18800
H442        H  0.69069672  0.26606585  0.77727138     0.19000
H443        H  0.54970528  0.11343080  0.71292794     0.19000
F444        F  0.54217718  0.19575958  0.70954095    -0.18800
C445        C  0.73151753  0.03395096  0.58754451    -0.20200
C446        C  0.69577903  0.99347601  0.56491004    -0.08200
C447        C  0.65630741  0.94915990  0.58076004     0.30600
C448        C  0.64961334  0.94748134  0.61840825    -0.20200
C449        C  0.68188878  0.99011917  0.64089154    -0.08200
C450        C  0.72481041  0.03234560  0.62547584     0.30600
F451        F  0.75675785  0.07431120  0.64632054    -0.18800
H452        H  0.76154555  0.06879082  0.57561974     0.19000
H453        H  0.61673180  0.91423931  0.62967560     0.19000
F454        F  0.62107142  0.90963306  0.55940984    -0.18800
C455        C  0.72429378  0.06629188  0.91132583    -0.20200
C456        C  0.71369862  0.02194908  0.93030058    -0.08200
C457        C  0.70353357  0.97716363  0.91058674     0.30600
C458        C  0.69786803  0.97517741  0.87244735    -0.20200
C459        C  0.70194231  0.01773850  0.85400350    -0.08200
C460        C  0.71876468  0.06440510  0.87344132     0.30600
F461        F  0.72535485  0.10697061  0.85615919    -0.18800
H462        H  0.73229418  0.10109041  0.92613983     0.19000
H463        H  0.68502474  0.93894321  0.85795987     0.19000
F464        F  0.69261475  0.93360740  0.92840330    -0.18800
C465        C  0.80965360  0.04212672  0.48090470    -0.20200
C466        C  0.76577213  0.00407067  0.49814914    -0.08200
C467        C  0.76815841  0.96368754  0.01518337     0.30600
C468        C  0.81393573  0.96206149  0.01537659    -0.20200
C469        C  0.85807696  0.00046703  0.49838744    -0.08200
C470        C  0.85519369  0.04032394  0.48073585     0.30600
F471        F  0.89601573  0.07696312  0.46255206    -0.18800
H472        H  0.80868013  0.07364610  0.46763432     0.19000
H473        H  0.81498857  0.93083314  0.02908263     0.19000
F474        F  0.72595252  0.92499323  0.03073513    -0.18800
loop_ 
_geom_bond_atom_site_label_1 
_geom_bond_atom_site_label_2 
_geom_bond_distance 
_geom_bond_site_symmetry_2 
_ccdc_geom_bond_type 
N1            C5   1.359   1_556  A
N1          C239   1.359       .  A
N1          C229   1.443       .  S
C2          N238   1.359       .  A
C2            C3   1.381       .  A
C2          C219   1.475       .  S
C3          C241   1.369       .  A
C3            H6   1.083       .  S
C4            C5   1.381       .  A
C4          C240   1.369   1_554  A
C4            H7   1.083       .  S
C5          C209   1.473   1_545  S
O8           C11   1.268       .  A
O8          Cd13   2.503   1_545  S
C9          C189   1.491       .  S
C9           O18   1.266       .  A
C9           O14   1.268       .  A
O10          C16   1.266   1_545  A
O10         Cd13   2.521   1_545  S
C11         C202   1.483       .  S
C11          O19   1.264       .  A
C12         C222   1.476       .  S
C12          O17   1.267   1_545  A
C12          O15   1.260       .  A
Cd13         O20   2.436       .  S
Cd13         O19   2.452   1_565  S
Cd13         O18   2.471       .  S
Cd13         O14   2.511       .  S
Cd13         O17   2.533       .  S
Cd13         O15   2.422   1_565  S
C16         C212   1.480       .  S
C16          O20   1.262       .  A
N21          C22   1.358   1_556  A
N21         C262   1.357       .  A
N21         C179   1.440       .  S
C22          C23   1.381   1_554  A
C22         C169   1.475       .  S
C23         C261   1.372       .  A
C23          H26   1.083   1_556  S
C24          C25   1.381       .  A
C24         C260   1.372       .  A
C24          H27   1.083       .  S
C25         N258   1.357       .  A
C25         C159   1.473       .  S
O28          C31   1.269       .  A
O28         Cd33   2.496   1_455  S
C29         C149   1.485       .  S
C29          O38   1.265       .  A
C29          O34   1.266       .  A
O30          C36   1.265       .  A
O30         Cd33   2.483       .  S
C31         C139   1.487       .  S
C31          O39   1.265       .  A
C32         C172   1.481       .  S
C32          O37   1.262       .  A
C32          O35   1.264       .  A
Cd33         O40   2.463       .  S
Cd33         O39   2.454   1_655  S
Cd33         O38   2.470       .  S
Cd33         O34   2.481       .  S
Cd33         O37   2.463       .  S
Cd33         O35   2.495       .  S
C36         C162   1.480       .  S
C36          O40   1.263       .  A
C41          C42   1.407       .  A
C41          C46   1.406       .  A
C41         C129   1.486       .  S
C42          C43   1.407       .  A
C42          H47   1.082       .  S
C43          C44   1.406       .  A
C43         C199   1.491       .  S
C44          C45   1.404       .  A
C44          H48   1.084       .  S
C45          C46   1.406       .  A
C45         C152   1.486       .  S
C46          H49   1.084       .  S
C50          C51   1.407       .  A
C50          C55   1.405       .  A
C50         C119   1.492       .  S
C51          C52   1.410       .  A
C51          H56   1.082       .  S
C52          C53   1.410       .  A
C52         C192   1.502       .  S
C53          C54   1.409       .  A
C53          H57   1.083       .  S
C54          C55   1.405       .  A
C54         C142   1.488       .  S
C55          H58   1.083       .  S
N59          C60   1.363       .  A
N59         C300   1.364   1_554  A
N59         C112   1.446       .  S
C60          C61   1.380       .  A
C60          C99   1.479       .  S
C61         C299   1.368       .  A
C61          H64   1.083       .  S
C62          C63   1.381       .  A
C62         C298   1.368       .  A
C62          H65   1.083       .  S
C63         N296   1.364       .  A
C63          C89   1.481       .  S
O66          C69   1.266       .  A
O66         Cd71   2.475       .  S
C67         C122   1.487       .  S
C67          O76   1.266       .  A
C67          O72   1.267       .  A
O68          C74   1.267       .  A
O68         Cd71   2.516       .  S
C69         C132   1.486       .  S
C69          O77   1.266       .  A
C70          C92   1.488       .  S
C70          O75   1.267       .  A
C70          O73   1.261       .  A
Cd71         O78   2.444       .  S
Cd71         O77   2.478       .  S
Cd71         O76   2.484       .  S
Cd71         O72   2.480       .  S
Cd71         O75   2.534       .  S
Cd71         O73   2.443       .  S
C74         C102   1.485       .  S
C74          O78   1.262       .  A
C79          C80   1.407   1_556  A
C79          C84   1.408       .  A
C79         C182   1.494       .  S
C80          C81   1.406   1_665  A
C80          H85   1.082   1_655  S
C81          C82   1.404   1_455  A
C81         C109   1.491       .  S
C82          C83   1.407   1_544  A
C82          H86   1.083       .  S
C83          C84   1.407       .  A
C83         C232   1.489   1_565  S
C84          H87   1.083       .  S
C88          C89   1.401       .  A
C88          C93   1.395       .  A
C88          H95   1.083       .  S
C89          C90   1.405       .  A
C90          C91   1.408       .  A
C90          F97   1.357       .  S
C91          C92   1.409       .  A
C91          H96   1.082       .  S
C92          C93   1.409       .  A
C93          F94   1.358       .  S
C98          C99   1.402       .  A
C98         C103   1.397       .  A
C98         H105   1.084       .  S
C99         C100   1.405       .  A
C100        C101   1.405       .  A
C100        F107   1.357       .  S
C101        C102   1.408       .  A
C101        H106   1.083       .  S
C102        C103   1.409       .  A
C103        F104   1.358       .  S
C108        C109   1.405       .  A
C108        C113   1.397       .  A
C108        H115   1.083       .  S
C109        C347   1.410   1_554  A
C110        C111   1.401       .  A
C110        C346   1.410       .  A
C110        F117   1.357       .  S
C111        C349   1.405       .  A
C111        H116   1.082       .  S
C112        C113   1.408       .  A
C112        C348   1.405       .  A
C113        F114   1.356       .  S
C118        C119   1.407       .  A
C118        C123   1.402       .  A
C118        H125   1.083       .  S
C119        C120   1.408       .  A
C120        C121   1.400       .  A
C120        F127   1.357       .  S
C121        C122   1.406       .  A
C121        H126   1.083       .  S
C122        C123   1.409       .  A
C123        F124   1.357       .  S
C128        C129   1.404       .  A
C128        C133   1.400       .  A
C128        H135   1.084       .  S
C129        C130   1.407       .  A
C130        C131   1.400       .  A
C130        F137   1.357       .  S
C131        C132   1.407       .  A
C131        H136   1.084       .  S
C132        C133   1.410       .  A
C133        F134   1.357       .  S
C138        C139   1.407       .  A
C138        C143   1.399       .  A
C138        H145   1.083       .  S
C139        C140   1.409       .  A
C140        C141   1.403       .  A
C140        F147   1.357       .  S
C141        C142   1.406       .  A
C141        H146   1.083       .  S
C142        C143   1.405       .  A
C143        F144   1.357       .  S
C148        C149   1.407       .  A
C148        C153   1.400       .  A
C148        H155   1.083       .  S
C149        C150   1.409       .  A
C150        C151   1.399       .  A
C150        F157   1.357       .  S
C151        C152   1.405       .  A
C151        H156   1.083       .  S
C152        C153   1.406       .  A
C153        F154   1.357       .  S
C158        C159   1.402   1_455  A
C158        C163   1.399       .  A
C158        H165   1.081       .  S
C159        C160   1.403       .  A
C160        C161   1.400       .  A
C160        F167   1.357       .  S
C161        C162   1.407       .  A
C161        H166   1.082       .  S
C162        C163   1.408   1_655  A
C163        F164   1.358       .  S
C168        C169   1.402       .  A
C168        C173   1.400       .  A
C168        H175   1.082       .  S
C169        C170   1.404   1_655  A
C170        C171   1.398       .  A
C170        F177   1.358       .  S
C171        C172   1.405   1_455  A
C171        H176   1.084       .  S
C172        C173   1.409       .  A
C173        F174   1.357       .  S
C178        C179   1.401       .  A
C178        C183   1.399   1_556  A
C178        H185   1.080   1_556  S
C179        C417   1.403       .  A
C180        C181   1.399       .  A
C180        C416   1.403       .  A
C180        F187   1.355   1_655  S
C181        C419   1.409       .  A
C181        H186   1.083   1_655  S
C182        C183   1.411   1_556  A
C182        C418   1.409       .  A
C183        F184   1.357       .  S
C188        C189   1.405       .  A
C188        C193   1.400       .  A
C188        H195   1.084       .  S
C189        C190   1.409       .  A
C190        C191   1.406       .  A
C190        F197   1.357       .  S
C191        C192   1.410       .  A
C191        H196   1.083       .  S
C192        C193   1.412       .  A
C193        F194   1.357       .  S
C198        C199   1.405       .  A
C198        C203   1.397       .  A
C198        H205   1.083       .  S
C199        C200   1.410       .  A
C200        C201   1.403       .  A
C200        F207   1.357       .  S
C201        C202   1.404       .  A
C201        H206   1.083       .  S
C202        C203   1.408       .  A
C203        F204   1.358       .  S
C208        C209   1.403   1_545  A
C208        C213   1.404       .  A
C208        H215   1.083       .  S
C209        C210   1.403       .  A
C210        C211   1.394       .  A
C210        F217   1.358       .  S
C211        C212   1.404       .  A
C211        H216   1.083       .  S
C212        C213   1.409   1_565  A
C213        F214   1.357       .  S
C218        C219   1.401       .  A
C218        C223   1.394       .  A
C218        H225   1.082       .  S
C219        C220   1.405   1_545  A
C220        C221   1.404       .  A
C220        F227   1.357       .  S
C221        C222   1.405   1_565  A
C221        H226   1.082       .  S
C222        C223   1.406       .  A
C223        F224   1.358       .  S
C228        C229   1.403       .  A
C228        C233   1.397       .  A
C228        H235   1.083       .  S
C229        C467   1.407   1_546  A
C230        C231   1.401       .  A
C230        C466   1.407   1_565  A
C230        F237   1.356       .  S
C231        C469   1.407   1_565  A
C231        H236   1.084       .  S
C232        C233   1.408       .  A
C232        C468   1.407   1_546  A
C233        F234   1.357       .  S
N238        C242   1.359       .  A
N238        C466   1.443       .  S
C239        C240   1.381       .  A
C239        C456   1.475       .  S
C240        H243   1.083       .  S
C241        C242   1.381       .  A
C241        H244   1.083       .  S
C242        C446   1.473   1_545  S
O245        C248   1.268       .  A
O245       Cd250   2.503   1_545  S
C246        C426   1.491       .  S
C246        O255   1.266       .  A
C246        O251   1.268       .  A
O247        C253   1.266   1_545  A
O247       Cd250   2.521   1_545  S
C248        C439   1.483       .  S
C248        O256   1.264       .  A
C249        C459   1.476       .  S
C249        O254   1.267   1_545  A
C249        O252   1.260       .  A
Cd250       O257   2.436       .  S
Cd250       O256   2.452   1_565  S
Cd250       O255   2.471       .  S
Cd250       O251   2.510       .  S
Cd250       O254   2.534       .  S
Cd250       O252   2.422   1_565  S
C253        C449   1.480       .  S
C253        O257   1.262       .  A
N258        C259   1.358       .  A
N258        C416   1.440       .  S
C259        C260   1.381       .  A
C259        C406   1.475       .  S
C260        H263   1.083       .  S
C261        C262   1.381       .  A
C261        H264   1.083       .  S
C262        C396   1.473       .  S
O265        C268   1.269       .  A
O265       Cd270   2.496   1_455  S
C266        C386   1.485       .  S
C266        O275   1.265       .  A
C266        O271   1.266       .  A
O267        C273   1.265       .  A
O267       Cd270   2.483       .  S
C268        C376   1.487       .  S
C268        O276   1.265       .  A
C269        C409   1.481       .  S
C269        O274   1.262       .  A
C269        O272   1.264       .  A
Cd270       O277   2.463       .  S
Cd270       O276   2.454   1_655  S
Cd270       O275   2.470       .  S
Cd270       O271   2.481       .  S
Cd270       O274   2.463       .  S
Cd270       O272   2.495       .  S
C273        C399   1.481       .  S
C273        O277   1.263       .  A
C278        C279   1.407       .  A
C278        C283   1.406       .  A
C278        C366   1.486       .  S
C279        C280   1.407       .  A
C279        H284   1.082       .  S
C280        C281   1.406       .  A
C280        C436   1.491       .  S
C281        C282   1.404       .  A
C281        H285   1.084       .  S
C282        C283   1.406       .  A
C282        C389   1.486       .  S
C283        H286   1.084       .  S
C287        C288   1.407       .  A
C287        C292   1.405       .  A
C287        C356   1.492       .  S
C288        C289   1.410       .  A
C288        H293   1.082       .  S
C289        C290   1.410       .  A
C289        C429   1.502       .  S
C290        C291   1.409       .  A
C290        H294   1.083       .  S
C291        C292   1.405       .  A
C291        C379   1.488       .  S
C292        H295   1.083       .  S
N296        C297   1.363       .  A
N296        C349   1.446       .  S
C297        C298   1.380       .  A
C297        C336   1.479       .  S
C298        H301   1.083       .  S
C299        C300   1.381   1_554  A
C299        H302   1.083   1_554  S
C300        C326   1.481       .  S
O303        C306   1.266       .  A
O303       Cd308   2.475       .  S
C304        C359   1.487       .  S
C304        O313   1.266       .  A
C304        O309   1.267       .  A
O305        C311   1.267       .  A
O305       Cd308   2.516       .  S
C306        C369   1.486       .  S
C306        O314   1.266       .  A
C307        C329   1.488       .  S
C307        O312   1.267       .  A
C307        O310   1.261       .  A
Cd308       O315   2.444       .  S
Cd308       O314   2.478       .  S
Cd308       O313   2.484       .  S
Cd308       O309   2.480       .  S
Cd308       O312   2.534       .  S
Cd308       O310   2.443       .  S
C311        C339   1.485       .  S
C311        O315   1.262       .  A
C316        C317   1.407       .  A
C316        C321   1.408       .  A
C316        C419   1.494       .  S
C317        C318   1.406   1_665  A
C317        H322   1.082   1_655  S
C318        C319   1.404   1_455  A
C318        C346   1.491       .  S
C319        C320   1.407   1_545  A
C319        H323   1.083       .  S
C320        C321   1.407       .  A
C320        C469   1.489   1_565  S
C321        H324   1.083       .  S
C325        C326   1.401       .  A
C325        C330   1.395       .  A
C325        H332   1.083       .  S
C326        C327   1.405       .  A
C327        C328   1.408       .  A
C327        F334   1.357       .  S
C328        C329   1.409       .  A
C328        H333   1.082       .  S
C329        C330   1.409       .  A
C330        F331   1.358       .  S
C335        C336   1.402       .  A
C335        C340   1.397       .  A
C335        H342   1.084       .  S
C336        C337   1.405       .  A
C337        C338   1.405       .  A
C337        F344   1.357       .  S
C338        C339   1.408       .  A
C338        H343   1.083       .  S
C339        C340   1.409       .  A
C340        F341   1.358       .  S
C345        C346   1.405       .  A
C345        C350   1.397       .  A
C345        H352   1.083       .  S
C347        C348   1.401   1_556  A
C347        F354   1.357       .  S
C348        H353   1.082   1_554  S
C349        C350   1.408       .  A
C350        F351   1.356       .  S
C355        C356   1.407       .  A
C355        C360   1.402       .  A
C355        H362   1.083       .  S
C356        C357   1.408       .  A
C357        C358   1.400       .  A
C357        F364   1.357       .  S
C358        C359   1.406       .  A
C358        H363   1.083       .  S
C359        C360   1.409       .  A
C360        F361   1.357       .  S
C365        C366   1.404       .  A
C365        C370   1.400       .  A
C365        H372   1.084       .  S
C366        C367   1.407       .  A
C367        C368   1.400       .  A
C367        F374   1.357       .  S
C368        C369   1.407       .  A
C368        H373   1.084       .  S
C369        C370   1.410       .  A
C370        F371   1.357       .  S
C375        C376   1.407       .  A
C375        C380   1.399       .  A
C375        H382   1.083       .  S
C376        C377   1.409       .  A
C377        C378   1.403       .  A
C377        F384   1.357       .  S
C378        C379   1.406       .  A
C378        H383   1.083       .  S
C379        C380   1.405       .  A
C380        F381   1.357       .  S
C385        C386   1.407       .  A
C385        C390   1.400       .  A
C385        H392   1.083       .  S
C386        C387   1.409       .  A
C387        C388   1.399       .  A
C387        F394   1.357       .  S
C388        C389   1.405       .  A
C388        H393   1.083       .  S
C389        C390   1.406       .  A
C390        F391   1.357       .  S
C395        C396   1.402   1_455  A
C395        C400   1.399       .  A
C395        H402   1.081       .  S
C396        C397   1.403       .  A
C397        C398   1.400       .  A
C397        F404   1.357       .  S
C398        C399   1.407       .  A
C398        H403   1.082       .  S
C399        C400   1.408   1_655  A
C400        F401   1.358       .  S
C405        C406   1.402       .  A
C405        C410   1.400       .  A
C405        H412   1.082       .  S
C406        C407   1.404   1_655  A
C407        C408   1.398       .  A
C407        F414   1.358       .  S
C408        C409   1.405   1_455  A
C408        H413   1.084       .  S
C409        C410   1.409       .  A
C410        F411   1.357       .  S
C415        C416   1.401       .  A
C415        C420   1.399       .  A
C415        H422   1.080       .  S
C417        C418   1.399       .  A
C417        F424   1.355   1_655  S
C418        H423   1.083   1_655  S
C419        C420   1.411       .  A
C420        F421   1.357       .  S
C425        C426   1.405       .  A
C425        C430   1.400       .  A
C425        H432   1.084       .  S
C426        C427   1.409       .  A
C427        C428   1.406       .  A
C427        F434   1.357       .  S
C428        C429   1.410       .  A
C428        H433   1.083       .  S
C429        C430   1.412       .  A
C430        F431   1.357       .  S
C435        C436   1.405       .  A
C435        C440   1.397       .  A
C435        H442   1.083       .  S
C436        C437   1.410       .  A
C437        C438   1.403       .  A
C437        F444   1.357       .  S
C438        C439   1.404       .  A
C438        H443   1.083       .  S
C439        C440   1.408       .  A
C440        F441   1.358       .  S
C445        C446   1.403   1_545  A
C445        C450   1.404       .  A
C445        H452   1.083       .  S
C446        C447   1.403       .  A
C447        C448   1.394       .  A
C447        F454   1.358       .  S
C448        C449   1.404       .  A
C448        H453   1.083       .  S
C449        C450   1.409   1_565  A
C450        F451   1.357       .  S
C455        C456   1.401       .  A
C455        C460   1.394       .  A
C455        H462   1.082       .  S
C456        C457   1.405   1_545  A
C457        C458   1.404       .  A
C457        F464   1.357       .  S
C458        C459   1.405   1_565  A
C458        H463   1.082       .  S
C459        C460   1.406       .  A
C460        F461   1.358       .  S
C465        C466   1.403       .  A
C465        C470   1.397       .  A
C465        H472   1.083       .  S
C467        C468   1.401       .  A
C467        F474   1.356       .  S
C468        H473   1.084       .  S
C469        C470   1.408       .  A
C470        F471   1.357       .  S
