geometry optimzed in LAMMPS
_audit_creation_date              2020-11-30 
_audit_creation_method            'lammps2cif' 
_symmetry_space_group_name_H-M    'P1' 
_symmetry_Int_Tables_number       1 
_symmetry_cell_setting            triclinic 
loop_ 
_symmetry_equiv_pos_as_xyz 
  x,y,z 
_cell_length_a                    45.28769162 
_cell_length_b                    45.04398511632312 
_cell_length_c                    45.6108001779806 
_cell_angle_alpha                 90.28679117223119 
_cell_angle_beta                  90.58388047426949 
_cell_angle_gamma                 89.76039909470423 
loop_ 
_atom_site_label 
_atom_site_type_symbol 
_atom_site_fract_x 
_atom_site_fract_y 
_atom_site_fract_z 
_atom_site_charge 
N1          N  0.52040170  0.26601349  0.08066835    -0.00800
C2          C  0.55022694  0.26706492  0.07895246     0.01700
C3          C  0.55937841  0.25735160  0.05174496    -0.21100
C4          C  0.53424947  0.25002706  0.03613003    -0.21300
C5          C  0.51073233  0.25554595  0.05440537     0.01600
H6          H  0.58187187  0.25593582  0.04401404     0.15400
H7          H  0.53322531  0.24188402  0.01376245     0.15500
N8          N  0.29901161  0.11890880  0.46547872    -0.00800
C9          C  0.29791281  0.12003210  0.49516922     0.01700
C10         C  0.28785483  0.09344357  0.50608031    -0.21100
C11         C  0.28261610  0.07524377  0.48229280    -0.21300
C12         C  0.28969389  0.09137061  0.45772207     0.01600
H13         H  0.28498453  0.08776305  0.52891353     0.15400
H14         H  0.27489362  0.05253607  0.48288559     0.15500
N15         N  0.14262186  0.49634017  0.23407426    -0.00800
C16         C  0.14411737  0.52628891  0.23157026     0.01700
C17         C  0.11817417  0.53745043  0.21982681    -0.21100
C18         C  0.09997212  0.51358190  0.21488338    -0.21300
C19         C  0.11549058  0.48875383  0.22379778     0.01600
H20         H  0.11287067  0.56054146  0.21577117     0.15400
H21         H  0.07761813  0.51431146  0.20625344     0.15500
C22         C  0.31744517  0.33227435  0.27485758     0.05800
C23         C  0.34011245  0.33056531  0.25407164    -0.10400
C24         C  0.36119662  0.30760732  0.25551743     0.03300
C25         C  0.35952409  0.28636738  0.27784728    -0.08900
C26         C  0.33699337  0.28803316  0.29868656     0.05800
C27         C  0.31601598  0.31098831  0.29713435    -0.08300
H28         H  0.34117119  0.34684549  0.23670554     0.11300
H29         H  0.37560410  0.26850608  0.27890765     0.08900
H30         H  0.29847930  0.31215131  0.31310300     0.08700
O31         O  0.73761103  0.64102520  0.64518113    -0.75900
C32         C  0.66296255  0.68639516  0.68832872     0.85200
O33         O  0.73911243  0.73820010  0.60643490    -0.77000
O34         O  0.71536147  0.77047369  0.70344689    -0.78500
O35         O  0.77374764  0.68474669  0.73731221    -0.78300
O36         O  0.77660854  0.64133168  0.67550684    -0.76900
Zn37       Zn  0.71763039  0.68093572  0.64969369     1.55700
O38         O  0.73413705  0.71279530  0.74695971    -0.78300
Cd39       Cd  0.77619041  0.68492597  0.69144866     1.59700
Cd40       Cd  0.75744668  0.74040566  0.64864716     1.59600
O41         O  0.81621046  0.70377729  0.67902488    -0.78300
O42         O  0.74187181  0.70742589  0.67378710    -1.88800
Cd43       Cd  0.71678011  0.72428416  0.70606845     1.59900
O44         O  0.80362092  0.73900296  0.64680797    -0.78200
O45         O  0.67401006  0.70687535  0.70438484    -0.76900
C46         C  0.72027945  0.72034342  0.59526033     0.85600
C47         C  0.76001675  0.62831230  0.65672000     0.85300
O48         O  0.67742222  0.67430680  0.66762667    -0.75800
C49         C  0.75602801  0.69698964  0.75537192     0.86100
O50         O  0.71049680  0.69817245  0.60932421    -0.75900
C51         C  0.82307433  0.72392763  0.66077744     0.86200
C52         C  0.72806186  0.78920471  0.68693741     0.86600
O53         O  0.74493402  0.78136917  0.66602682    -0.78400
N54         N  0.27827218  0.92556387  0.96294599    -0.00800
C55         C  0.27479050  0.92685429  0.99246706     0.01700
C56         C  0.27513936  0.95597144  0.00204060    -0.21100
C57         C  0.27906839  0.97328236  0.97766354    -0.21300
C58         C  0.28096125  0.95411043  0.95407820     0.01600
H59         H  0.27302447  0.96377384  0.02441931     0.15400
H60         H  0.28065197  0.99725627  0.97722744     0.15500
N61         N  0.45000266  0.53812134  0.72882447    -0.00800
C62         C  0.44928162  0.50802831  0.72729928     0.01700
C63         C  0.47576182  0.49706917  0.71705830    -0.21100
C64         C  0.49347056  0.52120460  0.71204568    -0.21300
C65         C  0.47717376  0.54603898  0.71942187     0.01600
H66         H  0.48171580  0.47396278  0.71396185     0.15400
H67         H  0.51596739  0.52067301  0.70424431     0.15500
N68         N  0.06847683  0.76628762  0.57735143    -0.00800
C69         C  0.03859307  0.76521381  0.57859042     0.01700
C70         C  0.02632414  0.77030918  0.55123182    -0.21100
C71         C  0.04944331  0.77467753  0.53242702    -0.21300
C72         C  0.07495035  0.77207134  0.54903052     0.01600
H73         H  0.00305702  0.77046911  0.54549806     0.15400
H74         H  0.04782827  0.77889885  0.50911553     0.15500
C75         C  0.26345321  0.75264972  0.79325261     0.05800
C76         C  0.24112319  0.75633792  0.77194058    -0.10400
C77         C  0.23897518  0.73660436  0.74806201     0.03300
C78         C  0.25927824  0.71310181  0.74557970    -0.08900
C79         C  0.28165055  0.70926815  0.76678180     0.05800
C80         C  0.28363720  0.72905221  0.79060962    -0.08300
H81         H  0.22558174  0.77459749  0.77384108     0.11300
H82         H  0.25776280  0.69792015  0.72711607     0.08900
H83         H  0.30097785  0.72622766  0.80692491     0.08700
O84         O  0.41692453  0.17829407  0.80047370    -0.75900
C85         C  0.37068433  0.22411949  0.87319209     0.85200
O86         O  0.31877300  0.14359400  0.79319023    -0.77000
O87         O  0.28914621  0.24176589  0.82016410    -0.78500
O88         O  0.37790761  0.27255101  0.76361187    -0.78300
O89         O  0.41867286  0.20879267  0.76215885    -0.76900
Zn90       Zn  0.37658259  0.18453807  0.81872732     1.55700
O91         O  0.34832022  0.28477518  0.80080660    -0.78300
Cd92       Cd  0.37612781  0.22651384  0.76141438     1.59700
Cd93       Cd  0.31818611  0.18667696  0.77705769     1.59600
O94         O  0.35806706  0.21493068  0.72094020    -0.78300
O95         O  0.35181240  0.21026417  0.79426146    -1.88800
Cd96       Cd  0.33541776  0.24398939  0.81842102     1.59900
O97         O  0.31959907  0.18603387  0.73128891    -0.78200
O98         O  0.35218033  0.24182884  0.86120255    -0.76900
C99         C  0.33522952  0.13117027  0.81237935     0.85600
C100        C  0.43047319  0.18928255  0.77873328     0.85300
O101        O  0.38195586  0.20226322  0.85936763    -0.75800
C102        C  0.36535341  0.29186891  0.77983019     0.86100
O103        O  0.35745081  0.14423353  0.82384106    -0.75900
C104        C  0.33646067  0.19867309  0.71294273     0.86200
C105        C  0.27024720  0.22484548  0.80759809     0.86600
O106        O  0.27780212  0.20403682  0.79016087    -0.78400
N107        N  0.02109107  0.24709292  0.89277772    -0.00800
C108        C  0.05106893  0.24584344  0.89302443     0.01700
C109        C  0.06190355  0.25059070  0.92104709    -0.21100
C110        C  0.03784748  0.25489658  0.93874623    -0.21300
C111        C  0.01316441  0.25262392  0.92091006     0.01600
H112        H  0.08487473  0.25104894  0.92786210     0.15400
H113        H  0.03831923  0.25942317  0.96208441     0.15500
N114        N  0.80236723  0.41712890  0.50612167    -0.00800
C115        C  0.80125646  0.41772428  0.47635390     0.01700
C116        C  0.79190311  0.44524836  0.46675524    -0.21100
C117        C  0.78704824  0.46224134  0.49137674    -0.21300
C118        C  0.79362257  0.44451445  0.51514984     0.01600
H119        H  0.78903380  0.45226493  0.44423049     0.15400
H120        H  0.77967962  0.48514086  0.49188410     0.15500
N121        N  0.63887597  0.03486400  0.73091762    -0.00800
C122        C  0.64079103  0.00484123  0.73168140     0.01700
C123        C  0.61439936  0.99282542  0.74063412    -0.21100
C124        C  0.59553388  0.01629732  0.74564599    -0.21300
C125        C  0.61112140  0.04174867  0.73953171     0.01600
H126        H  0.60932152  0.96949005  0.74299273     0.15400
H127        H  0.57284886  0.01493064  0.75277289     0.15500
C128        C  0.83189017  0.24470383  0.67208996     0.05800
C129        C  0.85434687  0.24584498  0.69352403    -0.10400
C130        C  0.85489508  0.22536223  0.71663933     0.03300
C131        C  0.83273685  0.20370300  0.71828198    -0.08900
C132        C  0.81015675  0.20246277  0.69694368     0.05800
C133        C  0.80982853  0.22299024  0.67387592    -0.08300
H134        H  0.87131783  0.26267178  0.69225298     0.11300
H135        H  0.83300868  0.18792987  0.73615250     0.08900
H136        H  0.79241124  0.22213378  0.65742331     0.08700
O137        O  0.91431291  0.35997725  0.16958099    -0.75900
C138        C  0.87125620  0.30916546  0.09782569     0.85200
O139        O  0.81868695  0.39627227  0.17292124    -0.77000
O140        O  0.78709673  0.29689488  0.14931277    -0.78500
O141        O  0.87645060  0.26629420  0.20675305    -0.78300
O142        O  0.91606902  0.33074660  0.20887162    -0.76900
Zn143      Zn  0.87498894  0.35223922  0.14982333     1.55700
O144        O  0.84546388  0.25410028  0.17019743    -0.78300
Cd145      Cd  0.87396944  0.31246163  0.20854220     1.59700
Cd146      Cd  0.81672441  0.35356393  0.19068797     1.59600
O147        O  0.85558262  0.32464809  0.24835688    -0.78300
O148        O  0.84982175  0.32840963  0.17489126    -1.88800
Cd149      Cd  0.83319332  0.29438878  0.15139555     1.59900
O150        O  0.81849242  0.35542847  0.23669725    -0.78200
O151        O  0.85108734  0.29354492  0.10938895    -0.76900
C152        C  0.83524462  0.40710557  0.15320947     0.85600
C153        C  0.92762455  0.34999660  0.19219597     0.85300
O154        O  0.88255906  0.33149287  0.11095529    -0.75800
C155        C  0.86320771  0.24698843  0.19090559     0.86100
O156        O  0.85645191  0.39239296  0.14204303    -0.75900
C157        C  0.83468644  0.34211730  0.25565287     0.86200
C158        C  0.76833778  0.31412178  0.16146922     0.86600
O159        O  0.77605216  0.33576905  0.17795468    -0.78400
N160        N  0.94799765  0.99819952  0.23140207    -0.00800
C161        C  0.94822680  0.02828861  0.23038351     0.01700
C162        C  0.97611092  0.03895438  0.23674748    -0.21100
C163        C  0.99376861  0.01460475  0.24189810    -0.21300
C164        C  0.97598514  0.99000664  0.23850605     0.01600
H165        H  0.98291162  0.06197166  0.23740701     0.15400
H166        H  0.01710962  0.01480307  0.24729936     0.15500
N167        N  0.56599030  0.77207512  0.38782985    -0.00800
C168        C  0.53610600  0.77326253  0.38707422     0.01700
C169        C  0.52473278  0.76684235  0.41426606    -0.21100
C170        C  0.54850096  0.76139071  0.43248687    -0.21300
C171        C  0.57344652  0.76472652  0.41570626     0.01600
H172        H  0.50164511  0.76605028  0.42016826     0.15400
H173        H  0.54767863  0.75546605  0.45544605     0.15500
N174        N  0.79561354  0.61959288  0.00323699    -0.00800
C175        C  0.79736146  0.62102490  0.97358225     0.01700
C176        C  0.80825663  0.59468830  0.96239884    -0.21100
C177        C  0.81340292  0.57633077  0.98592543    -0.21300
C178        C  0.80547583  0.59212487  0.01063936     0.01600
H179        H  0.81164474  0.58923754  0.93952467     0.15400
H180        H  0.82166259  0.55375241  0.98505669     0.15500
C181        C  0.75374661  0.78951415  0.17102276     0.05800
C182        C  0.77444084  0.81254610  0.17374913    -0.10400
C183        C  0.77253545  0.83314632  0.19689637     0.03300
C184        C  0.74965887  0.83063717  0.21734299    -0.08900
C185        C  0.72886565  0.80764580  0.21475928     0.05800
C186        C  0.73098642  0.78717118  0.19154695    -0.08300
H187        H  0.79216670  0.81425187  0.15806244     0.11300
H188        H  0.74822472  0.84632375  0.23536574     0.08900
H189        H  0.71514290  0.76927907  0.18963135     0.08700
O190        O  0.20697963  0.83325266  0.35582588    -0.75900
C191        C  0.25750585  0.90557734  0.31421604     0.85200
O192        O  0.17140495  0.82910009  0.26031149    -0.77000
O193        O  0.26845055  0.85428843  0.23034971    -0.78500
O194        O  0.30034435  0.79426763  0.31771137    -0.78300
O195        O  0.23618696  0.79324707  0.35703624    -0.76900
Zn196      Zn  0.21468449  0.85305404  0.31682884     1.55700
O197        O  0.31210256  0.83047525  0.28657016    -0.78300
Cd198      Cd  0.25441900  0.79311753  0.31543098     1.59700
Cd199      Cd  0.21376534  0.81117333  0.25872943     1.59600
O200        O  0.24229679  0.75272293  0.29684538    -0.78300
O201        O  0.23854907  0.82733422  0.29191593    -1.88800
Cd202      Cd  0.27221450  0.85095869  0.27591441     1.59900
O203        O  0.21183106  0.76477055  0.25991489    -0.78200
O204        O  0.27376567  0.89340607  0.29485077    -0.76900
C205        C  0.16062583  0.84960962  0.27636110     0.85600
C206        C  0.21706381  0.81027284  0.36873972     0.85300
O207        O  0.23497254  0.89255616  0.32452871    -0.75800
C208        C  0.31935207  0.80955034  0.30397340     0.86100
O209        O  0.17502411  0.86116516  0.29763136    -0.75900
C210        C  0.22490266  0.74549149  0.27590942     0.86200
C211        C  0.25139237  0.84206529  0.21142418     0.86600
O212        O  0.23069386  0.82449677  0.21860796    -0.78400
C213        C  0.76357597  0.72755278  0.10540543     0.19700
C214        C  0.78418823  0.73267045  0.08327346    -0.09500
C215        C  0.78929671  0.71111163  0.06162291    -0.10300
C216        C  0.77384195  0.68419959  0.06185427     0.21200
C217        C  0.75300234  0.67916738  0.08382414    -0.12300
C218        C  0.74788345  0.70075346  0.10549628    -0.10600
C219        C  0.78016755  0.66147238  0.04019628     0.02200
C220        C  0.78674599  0.64227311  0.02272479    -0.30600
C221        C  0.75915819  0.74948987  0.12830252     0.03600
C222        C  0.75634374  0.76781836  0.14761458    -0.32300
H223        H  0.79653057  0.75321616  0.08291910     0.14600
H224        H  0.80554175  0.71530793  0.04487451     0.14400
H225        H  0.74095267  0.65845170  0.08438175     0.14300
H226        H  0.73191709  0.69642277  0.12247324     0.13300
C227        C  0.66510517  0.79718819  0.27731034     0.19700
C228        C  0.63818476  0.78318180  0.27078829    -0.09500
C229        C  0.61740413  0.77859920  0.29290594    -0.10300
C230        C  0.62336998  0.78795178  0.32174179     0.21200
C231        C  0.65016380  0.80217306  0.32819166    -0.12300
C232        C  0.67091945  0.80675886  0.30609615    -0.10600
C233        C  0.60239055  0.78246289  0.34481497     0.02200
C234        C  0.58539910  0.77765292  0.36453803    -0.30600
C235        C  0.68697940  0.80132348  0.25473247     0.03600
C236        C  0.70583359  0.80449672  0.23635706    -0.32300
H237        H  0.63334825  0.77562901  0.24867261     0.14600
H238        H  0.59680838  0.76756536  0.28757089     0.14400
H239        H  0.65511622  0.80951148  0.35035752     0.14300
H240        H  0.69160144  0.81758709  0.31150892     0.13300
C241        C  0.40766431  0.79589642  0.31803521     0.19700
C242        C  0.42162191  0.76829285  0.31437709    -0.09500
C243        C  0.45146120  0.76478214  0.32211617    -0.10300
C244        C  0.46752758  0.78888198  0.33344641     0.21200
C245        C  0.45376624  0.81665680  0.33624923    -0.12300
C246        C  0.42397929  0.82015916  0.32853748    -0.10600
C247        C  0.49644668  0.78424365  0.34622144     0.02200
C248        C  0.51748599  0.77975710  0.36207972    -0.30600
C249        C  0.37641162  0.79923396  0.31230074     0.03600
C250        C  0.35026433  0.80324931  0.30840551    -0.32300
H251        H  0.40925480  0.74932723  0.30633802     0.14600
H252        H  0.46167727  0.74306430  0.32029694     0.14400
H253        H  0.46575783  0.83534552  0.34544199     0.14300
H254        H  0.41345465  0.84159155  0.33153933     0.13300
C255        C  0.83628116  0.89743122  0.20656919     0.19700
C256        C  0.86615841  0.88917410  0.20535497    -0.09500
C257        C  0.88836406  0.91039761  0.20981173    -0.10300
C258        C  0.88096547  0.94013473  0.21552574     0.21200
C259        C  0.85109934  0.94848041  0.21641358    -0.12300
C260        C  0.82887730  0.92724109  0.21195762    -0.10600
C261        C  0.90401413  0.96181017  0.22092918     0.02200
C262        C  0.92397842  0.97907257  0.22571055    -0.30600
C263        C  0.81335503  0.87525958  0.20282385     0.03600
C264        C  0.79452706  0.85633986  0.20004858    -0.32300
H265        H  0.87229669  0.86627399  0.20119845     0.14600
H266        H  0.91131641  0.90356209  0.20902908     0.14400
H267        H  0.84498373  0.97134848  0.22077504     0.14300
H268        H  0.80592763  0.93402662  0.21294986     0.13300
C269        C  0.07937691  0.88558179  0.25910691     0.19700
C270        C  0.07352000  0.89756002  0.23134623    -0.09500
C271        C  0.04756606  0.91378631  0.22626345    -0.10300
C272        C  0.02723947  0.91814008  0.24887789     0.21200
C273        C  0.03273381  0.90552987  0.27645672    -0.12300
C274        C  0.05870857  0.88925529  0.28153818    -0.10600
C275        C  0.00312905  0.93880694  0.24477914     0.02200
C276        C  0.98726536  0.96017598  0.24151215    -0.30600
C277        C  0.10730159  0.87112151  0.26498710     0.03600
C278        C  0.13134550  0.86051132  0.27007407    -0.32300
H279        H  0.08938758  0.89506827  0.21387367     0.14600
H280        H  0.04385799  0.92383558  0.20500170     0.14400
H281        H  0.01747773  0.90914131  0.29427916     0.14300
H282        H  0.06305921  0.88027338  0.30315415     0.13300
C283        C  0.88082675  0.15902505  0.20585641     0.19700
C284        C  0.87571666  0.13758452  0.18397052    -0.09500
C285        C  0.88395712  0.10790036  0.18859374    -0.10300
C286        C  0.89725618  0.09943994  0.21518214     0.21200
C287        C  0.90191562  0.12082221  0.23719645    -0.12300
C288        C  0.89372346  0.15044794  0.23257127    -0.10600
C289        C  0.90902435  0.06980721  0.21904436     0.02200
C290        C  0.92383138  0.04786442  0.22352662    -0.30600
C291        C  0.87378813  0.18992076  0.20066423     0.03600
C292        C  0.86869340  0.21594024  0.19638144    -0.32300
H293        H  0.86587416  0.14390917  0.16316130     0.14600
H294        H  0.88060415  0.09173401  0.17121472     0.14400
H295        H  0.91256847  0.11472220  0.25768998     0.14300
H296        H  0.89793555  0.16676262  0.24963856     0.13300
C297        C  0.81312480  0.53984359  0.08208237     0.19700
C298        C  0.84154084  0.53172305  0.09172100    -0.09500
C299        C  0.84567671  0.50643416  0.10913269    -0.10300
C300        C  0.82143375  0.48899480  0.11698975     0.21200
C301        C  0.79295472  0.49762777  0.10809518    -0.12300
C302        C  0.78882192  0.52289742  0.09069416    -0.10600
C303        C  0.82591807  0.46113275  0.13212086     0.02200
C304        C  0.82981073  0.43684949  0.14278386    -0.30600
C305        C  0.80927541  0.56327212  0.06073824     0.03600
C306        C  0.80677271  0.57937890  0.03968267    -0.32300
H307        H  0.86059488  0.54434683  0.08495700     0.14600
H308        H  0.86784258  0.49996902  0.11567160     0.14400
H309        H  0.77402401  0.48429553  0.11382433     0.14300
H310        H  0.76678516  0.52863069  0.08313481     0.13300
C311        C  0.74564829  0.13934945  0.70515791     0.19700
C312        C  0.73295293  0.12463340  0.68096150    -0.09500
C313        C  0.71146501  0.10273466  0.68516000    -0.10300
C314        C  0.70252702  0.09540234  0.71357946     0.21200
C315        C  0.71517698  0.11018640  0.73770001    -0.12300
C316        C  0.73661051  0.13203399  0.73351261    -0.10600
C317        C  0.68022296  0.07305497  0.71823567     0.02200
C318        C  0.66129285  0.05505028  0.72360024    -0.30600
C319        C  0.76812665  0.16169159  0.70114816     0.03600
C320        C  0.78720180  0.18028022  0.69887939    -0.32300
H321        H  0.73969711  0.13003301  0.65890790     0.14600
H322        H  0.70183847  0.09155361  0.66628498     0.14400
H323        H  0.70845476  0.10482627  0.75977484     0.14300
H324        H  0.74619487  0.14318943  0.75242256     0.13300
C325        C  0.82838225  0.30618471  0.60597819     0.19700
C326        C  0.81743499  0.29855599  0.57806725    -0.09500
C327        C  0.81394930  0.32035418  0.55643040    -0.10300
C328        C  0.82139711  0.34997004  0.56251270     0.21200
C329        C  0.83291360  0.35745682  0.59023198    -0.12300
C330        C  0.83639900  0.33567554  0.61184978    -0.10600
C331        C  0.81586704  0.37293288  0.54099767     0.02200
C332        C  0.81006600  0.39299227  0.52428353    -0.30600
C333        C  0.83036363  0.28409858  0.62887984     0.03600
C334        C  0.83129418  0.26602108  0.64843185    -0.32300
H335        H  0.81112992  0.27587112  0.57318948     0.14600
H336        H  0.80495854  0.31421261  0.53515611     0.14400
H337        H  0.83869918  0.38024090  0.59531021     0.14300
H338        H  0.84487353  0.34193337  0.63329748     0.13300
C339        C  0.82369180  0.35563881  0.34401072     0.19700
C340        C  0.79596278  0.35379724  0.35729529    -0.09500
C341        C  0.79284797  0.36052243  0.38718191    -0.10300
C342        C  0.81744157  0.36904116  0.40416026     0.21200
C343        C  0.84530830  0.37011131  0.39103780    -0.12300
C344        C  0.84842426  0.36338227  0.36114795    -0.10600
C345        C  0.81347560  0.38012566  0.43379420     0.02200
C346        C  0.80883164  0.39414177  0.45604548    -0.30600
C347        C  0.82659826  0.35069053  0.31271202     0.03600
C348        C  0.82956976  0.34699275  0.28655356    -0.32300
H349        H  0.77663079  0.34786882  0.34440303     0.14600
H350        H  0.77108666  0.35996372  0.39683283     0.14400
H351        H  0.86447284  0.37702792  0.40368595     0.14300
H352        H  0.87001798  0.36492700  0.35124847     0.13300
C353        C  0.96252991  0.23759243  0.82511011     0.19700
C354        C  0.93243254  0.24047015  0.83156221    -0.09500
C355        C  0.91102732  0.23744686  0.80934208    -0.10300
C356        C  0.91944780  0.23150705  0.78039046     0.21200
C357        C  0.94956080  0.22861216  0.77388745    -0.12300
C358        C  0.97100405  0.23163741  0.79614733    -0.10600
C359        C  0.89715535  0.22868676  0.75750817     0.02200
C360        C  0.87802175  0.22685610  0.73881435    -0.30600
C361        C  0.98448987  0.24077119  0.84826315     0.03600
C362        C  0.00186306  0.24361905  0.86846545    -0.32300
H363        H  0.92549747  0.24507777  0.85380496     0.14600
H364        H  0.88788619  0.23979145  0.81474274     0.14400
H365        H  0.95646144  0.22406599  0.75162627     0.14300
H366        H  0.99415799  0.22935602  0.79077449     0.13300
C367        C  0.90792345  0.28533940  0.01933302     0.19700
C368        C  0.91821086  0.30723182  0.00026553    -0.09500
C369        C  0.93490836  0.29929671  0.97570988    -0.10300
C370        C  0.94146185  0.26938863  0.96991996     0.21200
C371        C  0.93047597  0.24741186  0.98853873    -0.12300
C372        C  0.91374661  0.25535329  0.01310940    -0.10600
C373        C  0.96241281  0.26174509  0.94728162     0.02200
C374        C  0.98359556  0.25669975  0.93202572    -0.30600
C375        C  0.89308550  0.29376127  0.04612697     0.03600
C376        C  0.88225357  0.30090997  0.06930093    -0.32300
H377        H  0.91405305  0.33049237  0.00483772     0.14600
H378        H  0.94357564  0.31657428  0.96180786     0.14400
H379        H  0.93568209  0.22424004  0.98463990     0.14300
H380        H  0.90609260  0.23817132  0.02770579     0.13300
C381        C  0.18173948  0.23202174  0.82549021     0.19700
C382        C  0.16581249  0.20610253  0.83148122    -0.09500
C383        C  0.13598456  0.20784177  0.83945444    -0.10300
C384        C  0.12173141  0.23550224  0.84140864     0.21200
C385        C  0.13751257  0.26132815  0.83482002    -0.12300
C386        C  0.16731128  0.25959318  0.82686792    -0.10600
C387        C  0.09231765  0.23779815  0.85355092     0.02200
C388        C  0.07049413  0.24086767  0.86844676    -0.30600
C389        C  0.21298499  0.23045223  0.81882193     0.03600
C390        C  0.23916480  0.22873316  0.81366698    -0.32300
H391        H  0.17660700  0.18461094  0.83058637     0.14600
H392        H  0.12428972  0.18769216  0.84489593     0.14400
H393        H  0.12701482  0.28290592  0.83664838     0.14300
H394        H  0.17926686  0.27983501  0.82238205     0.13300
C395        C  0.55966426  0.11441426  0.75026731     0.19700
C396        C  0.55231128  0.12233200  0.77906386    -0.09500
C397        C  0.52775329  0.14049817  0.78442772    -0.10300
C398        C  0.51027986  0.15086858  0.76105518     0.21200
C399        C  0.51803190  0.14354704  0.73219926    -0.12300
C400        C  0.54261380  0.12536388  0.72683115    -0.10600
C401        C  0.48329879  0.16706216  0.76686036     0.02200
C402        C  0.45970796  0.17846068  0.77221864    -0.30600
C403        C  0.58248075  0.09251801  0.74509537     0.03600
C404        C  0.59826819  0.07107205  0.74179304    -0.32300
H405        H  0.56500438  0.11370380  0.79741800     0.14600
H406        H  0.52190376  0.14575244  0.80684625     0.14400
H407        H  0.50460757  0.15118240  0.71392052     0.14300
H408        H  0.54776262  0.11909624  0.70448587     0.13300
C409        C  0.17447733  0.74723066  0.68493054     0.19700
C410        C  0.18181085  0.74671297  0.65511560    -0.09500
C411        C  0.15978847  0.75030935  0.63356451    -0.10300
C412        C  0.13022806  0.75443857  0.64163057     0.21200
C413        C  0.12290093  0.75487002  0.67142299    -0.12300
C414        C  0.14491281  0.75128061  0.69296331    -0.10600
C415        C  0.10751334  0.75840873  0.61941317     0.02200
C416        C  0.08901113  0.76193007  0.60038667    -0.30600
C417        C  0.19719124  0.74364968  0.70724067     0.03600
C418        C  0.21614813  0.74056885  0.72592103    -0.32300
H419        H  0.20454250  0.74358241  0.64853743     0.14600
H420        H  0.16581609  0.74992992  0.61062572     0.14400
H421        H  0.10017669  0.75804139  0.67800513     0.14300
H422        H  0.13887808  0.75171230  0.71589314     0.13300
C423        C  0.18049075  0.79011129  0.44768315     0.19700
C424        C  0.17931667  0.81140630  0.47016940    -0.09500
C425        C  0.16232785  0.80629065  0.49512093    -0.10300
C426        C  0.14647077  0.77979912  0.49777959     0.21200
C427        C  0.14853843  0.75804066  0.47578575    -0.12300
C428        C  0.16549996  0.76316451  0.45083269    -0.15400
C429        C  0.12523536  0.77643464  0.52090089     0.02200
C430        C  0.10401843  0.77417960  0.53655461    -0.30600
C431        C  0.19521223  0.79679467  0.42058364     0.03600
C432        C  0.20594568  0.80296231  0.39725197    -0.32300
H433        H  0.19070720  0.83237101  0.46796074     0.14600
H434        H  0.16066137  0.82343838  0.51177256     0.14400
H435        H  0.13612121  0.73760873  0.47738862     0.14300
H436        H  0.16611107  0.74655356  0.43357870     0.13300
C437        C  0.38475228  0.59687006  0.74876980     0.19700
C438        C  0.36008461  0.59891851  0.73002816    -0.09500
C439        C  0.33890640  0.62128445  0.73423227    -0.10300
C440        C  0.34216569  0.64182602  0.75723546     0.21200
C441        C  0.36663474  0.63956088  0.77622125    -0.12300
C442        C  0.38783167  0.61718543  0.77200873    -0.10600
C443        C  0.32069866  0.66542085  0.76102703     0.02200
C444        C  0.30284786  0.68530408  0.76381816    -0.30600
C445        C  0.40749218  0.57489319  0.74323382     0.03600
C446        C  0.42696307  0.55746995  0.73715587    -0.32300
H447        H  0.35743234  0.58347360  0.71190951     0.14600
H448        H  0.32014136  0.62273466  0.71936553     0.14400
H449        H  0.36947991  0.65526427  0.79409205     0.14300
H450        H  0.40681516  0.61598357  0.78662041     0.13300
C451        C  0.38365044  0.37906736  0.76230047     0.19700
C452        C  0.38002350  0.39031715  0.73384536    -0.09500
C453        C  0.38819221  0.41960524  0.72756586    -0.10300
C454        C  0.39996692  0.43793217  0.74971292     0.21200
C455        C  0.40339921  0.42670147  0.77816760    -0.12300
C456        C  0.39525532  0.39745092  0.78443670    -0.10600
C457        C  0.41148659  0.46696042  0.74269851     0.02200
C458        C  0.42571402  0.48862300  0.73626238    -0.30600
C459        C  0.37621812  0.34855071  0.76870641     0.03600
C460        C  0.37078370  0.32285849  0.77410451    -0.32300
H461        H  0.37127445  0.37633346  0.71643596     0.14600
H462        H  0.38590581  0.42774502  0.70534182     0.14400
H463        H  0.41296982  0.44036947  0.79539585     0.14300
H464        H  0.39839009  0.38904234  0.80646714     0.13300
C465        C  0.27131159  0.81335326  0.86039932     0.19700
C466        C  0.27996481  0.84234730  0.85358796    -0.09500
C467        C  0.28209560  0.86401568  0.87565934    -0.10300
C468        C  0.27563433  0.85694297  0.90481074     0.21200
C469        C  0.26719946  0.82787982  0.91170131    -0.12300
C470        C  0.26506576  0.80617557  0.88959249    -0.10600
C471        C  0.27705513  0.87976315  0.92729264     0.02200
C472        C  0.27784462  0.90025916  0.94458918    -0.30600
C473        C  0.26846053  0.79126923  0.83733904     0.03600
C474        C  0.26605771  0.77343661  0.81748857    -0.32300
H475        H  0.28486245  0.84826650  0.83116446     0.14600
H476        H  0.28858269  0.88637303  0.86994724     0.14400
H477        H  0.26207516  0.82205824  0.93409556     0.14300
H478        H  0.25834690  0.78387422  0.89522895     0.13300
C479        C  0.26059636  0.86220921  0.12433913     0.19700
C480        C  0.23720022  0.87641678  0.10962698    -0.09500
C481        C  0.23983902  0.88416004  0.08004427    -0.10300
C482        C  0.26586041  0.87771693  0.06478674     0.21200
C483        C  0.28927032  0.86347301  0.07948408    -0.12300
C484        C  0.28662010  0.85569691  0.10910430    -0.10600
C485        C  0.26933628  0.88840842  0.03510275     0.02200
C486        C  0.27190215  0.90243547  0.01269147    -0.30600
C487        C  0.25795634  0.85464973  0.15504685     0.03600
C488        C  0.25532112  0.84867593  0.18075600    -0.32300
H489        H  0.21700647  0.88176118  0.12109658     0.14600
H490        H  0.22175021  0.89563997  0.06919141     0.14400
H491        H  0.30972681  0.85881393  0.06820038     0.14300
H492        H  0.30495926  0.84487084  0.12019282     0.13300
C493        C  0.29725455  0.00196215  0.88181881     0.19700
C494        C  0.32507924  0.00354659  0.86869851    -0.09500
C495        C  0.33247416  0.02814093  0.85156461    -0.10300
C496        C  0.31214146  0.05136962  0.84749865     0.21200
C497        C  0.28399344  0.04931164  0.85983021    -0.12300
C498        C  0.27660054  0.02473963  0.87692239    -0.10600
C499        C  0.32079286  0.07823983  0.83268544     0.02200
C500        C  0.32780326  0.10182749  0.82232208    -0.30600
C501        C  0.29111242  0.97924456  0.90319157     0.03600
C502        C  0.28618102  0.96442516  0.92462438    -0.32300
H503        H  0.34141510  0.98633768  0.87258631     0.14600
H504        H  0.35436624  0.02949651  0.84231052     0.14400
H505        H  0.26810165  0.06715132  0.85704042     0.14300
H506        H  0.25515958  0.02404781  0.88722947     0.13300
C507        C  0.97052540  0.74900932  0.63106957     0.19700
C508        C  0.95112548  0.77305519  0.63486624    -0.09500
C509        C  0.92153402  0.76817427  0.64211873    -0.10300
C510        C  0.91099072  0.73917713  0.64557753     0.21200
C511        C  0.93055662  0.71514844  0.64243791    -0.12300
C512        C  0.96016450  0.72003463  0.63516410    -0.10600
C513        C  0.87998994  0.73407979  0.65135324     0.02200
C514        C  0.85400183  0.72969204  0.65569166    -0.30600
C515        C  0.99956146  0.75392787  0.61907819     0.03600
C516        C  0.02064271  0.75875127  0.60375488    -0.32300
H517        H  0.95863270  0.79555583  0.63127913     0.14600
H518        H  0.90672385  0.78697788  0.64436980     0.14400
H519        H  0.92276386  0.69259316  0.64494864     0.14300
H520        H  0.97471255  0.70119027  0.63181599     0.13300
C521        C  0.77492759  0.66981971  0.90372763     0.19700
C522        C  0.75090585  0.65805361  0.88793083    -0.09500
C523        C  0.74686329  0.66477266  0.85817694    -0.10300
C524        C  0.76685172  0.68328909  0.84382492     0.21200
C525        C  0.79050358  0.69563435  0.85976530    -0.12300
C526        C  0.79456975  0.68887830  0.88955744    -0.10600
C527        C  0.76359116  0.68873984  0.81263785     0.02200
C528        C  0.76059023  0.69262221  0.78648728    -0.30600
C529        C  0.78130375  0.65919832  0.93307344     0.03600
C530        C  0.78785039  0.64501703  0.95469365    -0.32300
H531        H  0.73578974  0.64291910  0.89839144     0.14600
H532        H  0.72851899  0.65499078  0.84620881     0.14400
H533        H  0.80618560  0.70993804  0.84900707     0.14300
H534        H  0.81350134  0.69779222  0.90127959     0.13300
C535        C  0.69370376  0.93695206  0.70999918     0.19700
C536        C  0.71369877  0.92299700  0.72923055    -0.09500
C537        C  0.72231533  0.89344176  0.72428170    -0.10300
C538        C  0.71089709  0.87762330  0.70014976     0.21200
C539        C  0.69143081  0.89181726  0.68063048    -0.12300
C540        C  0.68287398  0.92130393  0.68554137    -0.10600
C541        C  0.71811149  0.84659022  0.69589054     0.02200
C542        C  0.72300013  0.82044360  0.69197037    -0.30600
C543        C  0.68124368  0.96569819  0.71702701     0.03600
C544        C  0.66565178  0.98658448  0.72333742    -0.32300
H545        H  0.72190966  0.93462779  0.74848020     0.14600
H546        H  0.73731163  0.88273373  0.73961688     0.14400
H547        H  0.68233398  0.87987580  0.66196284     0.14300
H548        H  0.66705477  0.93160906  0.67074884     0.13300
C549        C  0.64351049  0.74680587  0.46699896     0.19700
C550        C  0.63384229  0.72723221  0.48865842    -0.09500
C551        C  0.65156309  0.72135153  0.51325757    -0.10300
C552        C  0.67916886  0.73498884  0.51648531     0.21200
C553        C  0.68911274  0.75421759  0.49459752    -0.12300
C554        C  0.67131341  0.76014211  0.46992002    -0.10600
C555        C  0.69643279  0.73009320  0.54289346     0.02200
C556        C  0.70870654  0.72579254  0.56619017    -0.30600
C557        C  0.62361212  0.75456751  0.44328134     0.03600
C558        C  0.60280048  0.76010730  0.42742873    -0.32300
H559        H  0.61227867  0.71699327  0.48683813     0.14600
H560        H  0.64349917  0.70657584  0.53002732     0.14400
H561        H  0.71034406  0.76502584  0.49686531     0.14300
H562        H  0.67894561  0.77552578  0.45349563     0.13300
C563        C  0.78314516  0.49468859  0.58734361     0.19700
C564        C  0.75582158  0.50947427  0.58722787    -0.09500
C565        C  0.75169412  0.53499066  0.60439021    -0.10300
C566        C  0.77485294  0.54606264  0.62183130     0.21200
C567        C  0.80197198  0.53088980  0.62257649    -0.12300
C568        C  0.80611348  0.50531434  0.60536280    -0.10600
C569        C  0.77118509  0.57401429  0.63716944     0.02200
C570        C  0.76686657  0.59841091  0.64754000    -0.30600
C571        C  0.78838466  0.47105572  0.56636086     0.03600
C572        C  0.79169013  0.45540840  0.54497392    -0.32300
H573        H  0.73799544  0.50184670  0.57310955     0.14600
H574        H  0.73068741  0.54657831  0.60339926     0.14400
H575        H  0.82014712  0.53928859  0.63578247     0.14300
H576        H  0.82748646  0.49441769  0.60538220     0.13300
C577        C  0.58131016  0.65077464  0.70307147     0.19700
C578        C  0.56212202  0.64461429  0.67948281    -0.09500
C579        C  0.53636910  0.62806585  0.68386655    -0.10300
C580        C  0.52951629  0.61757351  0.71189701     0.21200
C581        C  0.54830521  0.62441784  0.73559645    -0.12300
C582        C  0.57404260  0.64094764  0.73121599    -0.10600
C583        C  0.50554454  0.59678614  0.71569762     0.02200
C584        C  0.48932143  0.57566274  0.71815831    -0.30600
C585        C  0.60924485  0.66546499  0.69816239     0.03600
C586        C  0.63338686  0.67603477  0.69390591    -0.32300
H587        H  0.56748313  0.65187770  0.65756374     0.14600
H588        H  0.52234624  0.62261061  0.66523917     0.14400
H589        H  0.54359078  0.61611543  0.75730444     0.14300
H590        H  0.58869328  0.64534336  0.74964029     0.13300
C591        C  0.25310251  0.39621410  0.26644068     0.19700
C592        C  0.23171780  0.40150141  0.28795364    -0.09500
C593        C  0.20914309  0.42243565  0.28303961    -0.10300
C594        C  0.20782254  0.43823078  0.25658810     0.21200
C595        C  0.22931058  0.43299854  0.23525126    -0.12300
C596        C  0.25180334  0.41213905  0.24014716    -0.10600
C597        C  0.18431602  0.45938306  0.25076574     0.02200
C598        C  0.16503378  0.47676651  0.24378627    -0.30600
C599        C  0.27601883  0.37409679  0.27075940     0.03600
C600        C  0.29513158  0.35532865  0.27294761    -0.32300
H601        H  0.23236962  0.38932026  0.30837857     0.14600
H602        H  0.19266286  0.42615255  0.29973571     0.14400
H603        H  0.22856839  0.44493693  0.21468767     0.14300
H604        H  0.26808915  0.40826968  0.22329582     0.13300
C605        C  0.20810406  0.65730517  0.26078073     0.19700
C606        C  0.19093734  0.64944908  0.23625294    -0.09500
C607        C  0.18317275  0.61979328  0.23132781    -0.10300
C608        C  0.19251332  0.59759964  0.25083868     0.21200
C609        C  0.20997063  0.60533158  0.27525345    -0.12300
C610        C  0.21778905  0.63509561  0.28018156    -0.10600
C611        C  0.18193322  0.56760710  0.24660453     0.02200
C612        C  0.16786894  0.54550804  0.24094028    -0.30600
C613        C  0.21494541  0.68822398  0.26624188     0.03600
C614        C  0.21968728  0.71434950  0.27042123    -0.32300
H615        H  0.18318746  0.66632645  0.22113190     0.14600
H616        H  0.16937512  0.61423088  0.21255653     0.14400
H617        H  0.21707355  0.58849636  0.29070957     0.14300
H618        H  0.23099447  0.64083488  0.29930251     0.13300
C619        C  0.06035141  0.41975143  0.21793026     0.19700
C620        C  0.05185887  0.41051344  0.18970368    -0.09500
C621        C  0.02562850  0.39469399  0.18541735    -0.10300
C622        C  0.00764899  0.38803894  0.20930886     0.21200
C623        C  0.01621812  0.39706934  0.23759218    -0.12300
C624        C  0.04247996  0.41291127  0.24188205    -0.10600
C625        C  0.97996476  0.37295559  0.20449270     0.02200
C626        C  0.95639229  0.36151424  0.19934382    -0.30600
C627        C  0.08530970  0.43924164  0.22172694     0.03600
C628        C  0.10246710  0.45961575  0.22360467    -0.32300
H629        H  0.06512910  0.41618513  0.17092269     0.14600
H630        H  0.01911469  0.38809685  0.16341770     0.14400
H631        H  0.00237702  0.39231748  0.25621880     0.14300
H632        H  0.04846531  0.42045504  0.26372850     0.13300
C633        C  0.32881016  0.22588277  0.36336588     0.19700
C634        C  0.31955813  0.23470825  0.39135112    -0.09500
C635        C  0.31479384  0.21345869  0.41312301    -0.10300
C636        C  0.31926185  0.18322578  0.40706673     0.21200
C637        C  0.32879926  0.17445009  0.37916971    -0.12300
C638        C  0.33356237  0.19568714  0.35741240    -0.10600
C639        C  0.31313005  0.16109322  0.42900059     0.02200
C640        C  0.30705607  0.14186231  0.44631600    -0.30600
C641        C  0.33264977  0.24767909  0.34059813     0.03600
C642        C  0.33505368  0.26597808  0.32147519    -0.32300
H643        H  0.31573726  0.25796543  0.39623790     0.14600
H644        H  0.30732761  0.22056752  0.43454879     0.14400
H645        H  0.33223777  0.15116150  0.37414513     0.14300
H646        H  0.34064901  0.18853505  0.33586949     0.13300
C647        C  0.32420618  0.18540950  0.62468313     0.19700
C648        C  0.29599967  0.18585430  0.61173658    -0.09500
C649        C  0.29232928  0.17874579  0.58197733    -0.10300
C650        C  0.31681827  0.17118898  0.56484479     0.21200
C651        C  0.34513313  0.17154062  0.57760671    -0.12300
C652        C  0.34881003  0.17868251  0.60738334    -0.10600
C653        C  0.31232633  0.15921463  0.53563357     0.02200
C654        C  0.30672660  0.14428166  0.51417133    -0.30600
C655        C  0.32777597  0.19062642  0.65585446     0.03600
C656        C  0.33120608  0.19432609  0.68197080    -0.32300
H657        H  0.27677217  0.19094025  0.62480673     0.14600
H658        H  0.27026129  0.17813044  0.57257739     0.14400
H659        H  0.36423154  0.16531666  0.56481525     0.14300
H660        H  0.37075226  0.17819294  0.61708754     0.13300
C661        C  0.27288834  0.98653947  0.35255047     0.19700
C662        C  0.29837463  0.00390396  0.34960979    -0.09500
C663        C  0.30225369  0.02956115  0.36687879    -0.10300
C664        C  0.28063000  0.03807475  0.38713037     0.21200
C665        C  0.25493693  0.02103709  0.38953949    -0.12300
C666        C  0.25108344  0.99547734  0.37236007    -0.10600
C667        C  0.28563775  0.06229442  0.40758396     0.02200
C668        C  0.28836306  0.07877061  0.42848783    -0.30600
C669        C  0.26937286  0.95884530  0.33653693     0.03600
C670        C  0.26478819  0.93484683  0.32524722    -0.32300
H671        H  0.31550135  0.99727010  0.33448691     0.14600
H672        H  0.32238976  0.04227795  0.36497887     0.14400
H673        H  0.23818397  0.02707542  0.40531035     0.14300
H674        H  0.23134005  0.98229059  0.37501377     0.13300
C675        C  0.42439166  0.29714751  0.19243744     0.19700
C676        C  0.41500128  0.28727394  0.16469867    -0.09500
C677        C  0.43557044  0.28182265  0.14259592    -0.10300
C678        C  0.46577015  0.28616875  0.14797174     0.21200
C679        C  0.47525489  0.29614727  0.17568841    -0.12300
C680        C  0.45462465  0.30161468  0.19785698    -0.10600
C681        C  0.48673766  0.27995367  0.12501857     0.02200
C682        C  0.50281033  0.27384997  0.10482358    -0.30600
C683        C  0.40291040  0.30211972  0.21524714     0.03600
C684        C  0.38412180  0.30524587  0.23371913    -0.32300
H685        H  0.39175514  0.28365000  0.16019002     0.14600
H686        H  0.42791808  0.27407639  0.12131330     0.14400
H687        H  0.49853634  0.29956329  0.18018563     0.14300
H688        H  0.46224044  0.30917382  0.21921043     0.13300
C689        C  0.62092160  0.29127376  0.12782352     0.19700
C690        C  0.63573216  0.27097324  0.14604256    -0.09500
C691        C  0.66517474  0.27596298  0.15449600    -0.10300
C692        C  0.68008269  0.30124633  0.14471111     0.21200
C693        C  0.66499462  0.32191521  0.12714212    -0.12300
C694        C  0.63558451  0.31693553  0.11870826    -0.10600
C695        C  0.71111124  0.30541663  0.15154191     0.02200
C696        C  0.73721558  0.30912232  0.15628010    -0.30600
C697        C  0.59215586  0.28422106  0.11566574     0.03600
C698        C  0.57064347  0.27709821  0.10140396    -0.32300
H699        H  0.62483250  0.25085264  0.15296791     0.14600
H700        H  0.67652223  0.25975386  0.16803939     0.14400
H701        H  0.67619568  0.34152739  0.11935216     0.14300
H702        H  0.62458116  0.33263992  0.10432560     0.13300
C703        C  0.40225565  0.23499793  0.95681141     0.19700
C704        C  0.41734458  0.21080438  0.96919321    -0.09500
C705        C  0.43414934  0.21453740  0.99487554    -0.10300
C706        C  0.43596853  0.24248712  0.00843720     0.21200
C707        C  0.41973137  0.26635527  0.99685508    -0.12300
C708        C  0.40290392  0.26261807  0.97113851    -0.10600
C709        C  0.45804721  0.24761814  0.03096002     0.02200
C710        C  0.48040975  0.25171409  0.04506666    -0.30600
C711        C  0.38855133  0.23201149  0.92817971     0.03600
C712        C  0.37943008  0.22890238  0.90333279    -0.32300
H713        H  0.41716415  0.18936804  0.95830890     0.14600
H714        H  0.44689889  0.19598426  0.00331287     0.14400
H715        H  0.42124323  0.28817048  0.00685249     0.14300
H716        H  0.39145846  0.28155071  0.96176807     0.13300
loop_ 
_geom_bond_atom_site_label_1 
_geom_bond_atom_site_label_2 
_geom_bond_distance 
_geom_bond_site_symmetry_2 
_ccdc_geom_bond_type 
N1            C5   1.354       .  A
N1            C2   1.355       .  A
N1          C682   1.409       .  S
C2            C3   1.381       .  A
C2          C698   1.445       .  S
C3            C4   1.377       .  A
C3            H6   1.083       .  S
C4            C5   1.380       .  A
C4            H7   1.083       .  S
C5          C710   1.444       .  S
N8           C12   1.356       .  A
N8            C9   1.356       .  A
N8          C640   1.409       .  S
C9           C10   1.380       .  A
C9          C654   1.446       .  S
C10          C11   1.376       .  A
C10          H13   1.083       .  S
C11          C12   1.380       .  A
C11          H14   1.083       .  S
C12         C668   1.447       .  S
N15          C19   1.355       .  A
N15          C16   1.356       .  A
N15         C598   1.411       .  S
C16          C17   1.380       .  A
C16         C612   1.444       .  S
C17          C18   1.374       .  A
C17          H20   1.083       .  S
C18          C19   1.379       .  A
C18          H21   1.083       .  S
C19         C628   1.441       .  S
C22          C23   1.406       .  A
C22          C27   1.403       .  A
C22         C600   1.448       .  S
C23          C24   1.406       .  A
C23          H28   1.084       .  S
C24          C25   1.404       .  A
C24         C684   1.448       .  S
C25          C26   1.403       .  A
C25          H29   1.084       .  S
C26          C27   1.403       .  A
C26         C642   1.445       .  S
C27          H30   1.084       .  S
O31          C47   1.273       .  A
O31         Zn37   2.020       .  S
C32         C586   1.446       .  S
C32          O48   1.273       .  A
C32          O45   1.276       .  A
O33          C46   1.276       .  A
O33         Cd40   2.091       .  S
O34          C52   1.276       .  A
O34         Cd43   2.085       .  S
O35          C49   1.277       .  A
O35         Cd39   2.096       .  S
O36          C47   1.276       .  A
O36         Cd39   2.091       .  S
Zn37         O48   2.028       .  S
Zn37         O50   2.024       .  S
Zn37         O42   1.952       .  S
O38          C49   1.275       .  A
O38         Cd43   2.083       .  S
Cd39         O41   2.089       .  S
Cd39         O42   2.015       .  S
Cd40         O44   2.094       .  S
Cd40         O53   2.083       .  S
Cd40         O42   2.015       .  S
O41          C51   1.276       .  A
O42         Cd43   2.013       .  S
Cd43         O45   2.093       .  S
O44          C51   1.277       .  A
C46         C556   1.443       .  S
C46          O50   1.273       .  A
C47         C570   1.442       .  S
C49         C528   1.446       .  S
C51         C514   1.447       .  S
C52         C542   1.442       .  S
C52          O53   1.276       .  A
N54          C58   1.356       .  A
N54          C55   1.358       .  A
N54         C472   1.411       .  S
C55          C56   1.380   1_556  A
C55         C486   1.446   1_556  S
C56          C57   1.375   1_554  A
C56          H59   1.083       .  S
C57          C58   1.379       .  A
C57          H60   1.083       .  S
C58         C502   1.446       .  S
N61          C65   1.357       .  A
N61          C62   1.357       .  A
N61         C446   1.411       .  S
C62          C63   1.380       .  A
C62         C458   1.446       .  S
C63          C64   1.375       .  A
C63          H66   1.083       .  S
C64          C65   1.380       .  A
C64          H67   1.083       .  S
C65         C584   1.447       .  S
N68          C72   1.354       .  A
N68          C69   1.356       .  A
N68         C416   1.410       .  S
C69          C70   1.381       .  A
C69         C516   1.445       .  S
C70          C71   1.376       .  A
C70          H73   1.083       .  S
C71          C72   1.380       .  A
C71          H74   1.083       .  S
C72         C430   1.443       .  S
C75          C76   1.405       .  A
C75          C80   1.405       .  A
C75         C474   1.449       .  S
C76          C77   1.405       .  A
C76          H81   1.084       .  S
C77          C78   1.404       .  A
C77         C418   1.449       .  S
C78          C79   1.404       .  A
C78          H82   1.084       .  S
C79          C80   1.404       .  A
C79         C444   1.448       .  S
C80          H83   1.084       .  S
O84         C100   1.275       .  A
O84         Zn90   2.033       .  S
C85         C712   1.442       .  S
C85         O101   1.274       .  A
C85          O98   1.276       .  A
O86          C99   1.274       .  A
O86         Cd93   2.079       .  S
O87         C105   1.278       .  A
O87         Cd96   2.101       .  S
O88         C102   1.275       .  A
O88         Cd92   2.077       .  S
O89         C100   1.274       .  A
O89         Cd92   2.083       .  S
Zn90        O101   2.027       .  S
Zn90        O103   2.030       .  S
Zn90         O95   1.955       .  S
O91         C102   1.278       .  A
O91         Cd96   2.097       .  S
Cd92         O94   2.077       .  S
Cd92         O95   2.011       .  S
Cd93         O97   2.089       .  S
Cd93        O106   2.078       .  S
Cd93         O95   2.011       .  S
O94         C104   1.274       .  A
O95         Cd96   2.016       .  S
Cd96         O98   2.089       .  S
O97         C104   1.276       .  A
C99         C500   1.442       .  S
C99         O103   1.274       .  A
C100        C402   1.442       .  S
C102        C460   1.444       .  S
C104        C656   1.443       .  S
C105        C390   1.447       .  S
C105        O106   1.274       .  A
N107        C111   1.358       .  A
N107        C108   1.358       .  A
N107        C362   1.411       .  S
C108        C109   1.380       .  A
C108        C388   1.448       .  S
C109        C110   1.375       .  A
C109        H112   1.083       .  S
C110        C111   1.380       .  A
C110        H113   1.083       .  S
C111        C374   1.447   1_455  S
N114        C118   1.357       .  A
N114        C115   1.359       .  A
N114        C332   1.411       .  S
C115        C116   1.380       .  A
C115        C346   1.448       .  S
C116        C117   1.375       .  A
C116        H119   1.083       .  S
C117        C118   1.379       .  A
C117        H120   1.083       .  S
C118        C572   1.447       .  S
N121        C125   1.355       .  A
N121        C122   1.355       .  A
N121        C318   1.409       .  S
C122        C123   1.381   1_545  A
C122        C544   1.445   1_545  S
C123        C124   1.376   1_565  A
C123        H126   1.083       .  S
C124        C125   1.380       .  A
C124        H127   1.083       .  S
C125        C404   1.445       .  S
C128        C129   1.404       .  A
C128        C133   1.404       .  A
C128        C334   1.448       .  S
C129        C130   1.404       .  A
C129        H134   1.084       .  S
C130        C131   1.405       .  A
C130        C360   1.450       .  S
C131        C132   1.406       .  A
C131        H135   1.084       .  S
C132        C133   1.404       .  A
C132        C320   1.449       .  S
C133        H136   1.084       .  S
O137        C153   1.272       .  A
O137       Zn143   2.019       .  S
C138        C376   1.444       .  S
C138        O154   1.274       .  A
C138        O151   1.275       .  A
O139        C152   1.277       .  A
O139       Cd146   2.094       .  S
O140        C158   1.277       .  A
O140       Cd149   2.091       .  S
O141        C155   1.276       .  A
O141       Cd145   2.083       .  S
O142        C153   1.274       .  A
O142       Cd145   2.080       .  S
Zn143       O154   2.031       .  S
Zn143       O156   2.022       .  S
Zn143       O148   1.951       .  S
O144        C155   1.275       .  A
O144       Cd149   2.082       .  S
Cd145       O147   2.076       .  S
Cd145       O148   2.009       .  S
Cd146       O150   2.101       .  S
Cd146       O159   2.088       .  S
Cd146       O148   2.012       .  S
O147        C157   1.274       .  A
O148       Cd149   2.010       .  S
Cd149       O151   2.088       .  S
O150        C157   1.278       .  A
C152        C304   1.443       .  S
C152        O156   1.274       .  A
C153        C626   1.438       .  S
C155        C292   1.442       .  S
C157        C348   1.446       .  S
C158        C696   1.445       .  S
C158        O159   1.276       .  A
N160        C164   1.355       .  A
N160        C161   1.356   1_565  A
N160        C262   1.412       .  S
C161        C162   1.381       .  A
C161        C290   1.443       .  S
C162        C163   1.374       .  A
C162        H165   1.083       .  S
C163        C164   1.380   1_545  A
C163        H166   1.083   1_655  S
C164        C276   1.442       .  S
N167        C171   1.355       .  A
N167        C168   1.354       .  A
N167        C234   1.410       .  S
C168        C169   1.380       .  A
C168        C248   1.442       .  S
C169        C170   1.375       .  A
C169        H172   1.083       .  S
C170        C171   1.380       .  A
C170        H173   1.083       .  S
C171        C558   1.442       .  S
N174        C178   1.357       .  A
N174        C175   1.358   1_554  A
N174        C220   1.411       .  S
C175        C176   1.380       .  A
C175        C530   1.447       .  S
C176        C177   1.375       .  A
C176        H179   1.083       .  S
C177        C178   1.380   1_556  A
C177        H180   1.083       .  S
C178        C306   1.447       .  S
C181        C182   1.405       .  A
C181        C186   1.404       .  A
C181        C222   1.449       .  S
C182        C183   1.405       .  A
C182        H187   1.084       .  S
C183        C184   1.406       .  A
C183        C264   1.452       .  S
C184        C185   1.406       .  A
C184        H188   1.084       .  S
C185        C186   1.404       .  A
C185        C236   1.450       .  S
C186        H189   1.084       .  S
O190        C206   1.274       .  A
O190       Zn196   2.028       .  S
C191        C670   1.447       .  S
C191        O207   1.274       .  A
C191        O204   1.276       .  A
O192        C205   1.275       .  A
O192       Cd199   2.080       .  S
O193        C211   1.277       .  A
O193       Cd202   2.090       .  S
O194        C208   1.276       .  A
O194       Cd198   2.082       .  S
O195        C206   1.274       .  A
O195       Cd198   2.077       .  S
Zn196       O207   2.033       .  S
Zn196       O209   2.023       .  S
Zn196       O201   1.950       .  S
O197        C208   1.275       .  A
O197       Cd202   2.079       .  S
Cd198       O200   2.077       .  S
Cd198       O201   2.008       .  S
Cd199       O203   2.093       .  S
Cd199       O212   2.083       .  S
Cd199       O201   2.010       .  S
O200        C210   1.274       .  A
O201       Cd202   2.008       .  S
Cd202       O204   2.095       .  S
O203        C210   1.277       .  A
C205        C278   1.439       .  S
C205        O209   1.274       .  A
C206        C432   1.440       .  S
C208        C250   1.440       .  S
C210        C614   1.444       .  S
C211        C488   1.445       .  S
C211        O212   1.276       .  A
C213        C214   1.402       .  A
C213        C218   1.403       .  A
C213        C221   1.449       .  S
C214        C215   1.402       .  A
C214        H223   1.083       .  S
C215        C216   1.402       .  A
C215        H224   1.084       .  S
C216        C217   1.403       .  A
C216        C219   1.449       .  S
C217        C218   1.403       .  A
C217        H225   1.083       .  S
C218        H226   1.084       .  S
C219        C220   1.211       .  T
C221        C222   1.212       .  T
C227        C228   1.404       .  A
C227        C232   1.403       .  A
C227        C235   1.449       .  S
C228        C229   1.403       .  A
C228        H237   1.083       .  S
C229        C230   1.403       .  A
C229        H238   1.084       .  S
C230        C231   1.402       .  A
C230        C233   1.448       .  S
C231        C232   1.402       .  A
C231        H239   1.084       .  S
C232        H240   1.084       .  S
C233        C234   1.211       .  T
C235        C236   1.212       .  T
C241        C242   1.402       .  A
C241        C246   1.401       .  A
C241        C249   1.444       .  S
C242        C243   1.402       .  A
C242        H251   1.084       .  S
C243        C244   1.403       .  A
C243        H252   1.084       .  S
C244        C245   1.401       .  A
C244        C247   1.443       .  S
C245        C246   1.399       .  A
C245        H253   1.084       .  S
C246        H254   1.084       .  S
C247        C248   1.207       .  T
C249        C250   1.209       .  T
C255        C256   1.403       .  A
C255        C260   1.404       .  A
C255        C263   1.452       .  S
C256        C257   1.403       .  A
C256        H265   1.083       .  S
C257        C258   1.403       .  A
C257        H266   1.084       .  S
C258        C259   1.403       .  A
C258        C261   1.451       .  S
C259        C260   1.404       .  A
C259        H267   1.084       .  S
C260        H268   1.083       .  S
C261        C262   1.212       .  T
C263        C264   1.213       .  T
C269        C270   1.401       .  A
C269        C274   1.402       .  A
C269        C277   1.443       .  S
C270        C271   1.399       .  A
C270        H279   1.084       .  S
C271        C272   1.402       .  A
C271        H280   1.084       .  S
C272        C273   1.402       .  A
C272        C275   1.443       .  S
C273        C274   1.401       .  A
C273        H281   1.083       .  S
C274        H282   1.083       .  S
C275        C276   1.208   1_455  T
C277        C278   1.208       .  T
C283        C284   1.404       .  A
C283        C288   1.401       .  A
C283        C291   1.447       .  S
C284        C285   1.403       .  A
C284        H293   1.083       .  S
C285        C286   1.402       .  A
C285        H294   1.084       .  S
C286        C287   1.403       .  A
C286        C289   1.446       .  S
C287        C288   1.400       .  A
C287        H295   1.084       .  S
C288        H296   1.084       .  S
C289        C290   1.209       .  T
C291        C292   1.210       .  T
C297        C298   1.403       .  A
C297        C302   1.403       .  A
C297        C305   1.448       .  S
C298        C299   1.403       .  A
C298        H307   1.084       .  S
C299        C300   1.403       .  A
C299        H308   1.083       .  S
C300        C301   1.402       .  A
C300        C303   1.448       .  S
C301        C302   1.402       .  A
C301        H309   1.084       .  S
C302        H310   1.083       .  S
C303        C304   1.211       .  T
C305        C306   1.211       .  T
C311        C312   1.404       .  A
C311        C316   1.402       .  A
C311        C319   1.448       .  S
C312        C313   1.404       .  A
C312        H321   1.083       .  S
C313        C314   1.403       .  A
C313        H322   1.084       .  S
C314        C315   1.402       .  A
C314        C317   1.447       .  S
C315        C316   1.400       .  A
C315        H323   1.084       .  S
C316        H324   1.084       .  S
C317        C318   1.210       .  T
C319        C320   1.211       .  T
C325        C326   1.403       .  A
C325        C330   1.402       .  A
C325        C333   1.448       .  S
C326        C327   1.403       .  A
C326        H335   1.084       .  S
C327        C328   1.403       .  A
C327        H336   1.084       .  S
C328        C329   1.403       .  A
C328        C331   1.449       .  S
C329        C330   1.402       .  A
C329        H337   1.084       .  S
C330        H338   1.084       .  S
C331        C332   1.211       .  T
C333        C334   1.211       .  T
C339        C340   1.403       .  A
C339        C344   1.404       .  A
C339        C347   1.451       .  S
C340        C341   1.403       .  A
C340        H349   1.083       .  S
C341        C342   1.404       .  A
C341        H350   1.084       .  S
C342        C343   1.403       .  A
C342        C345   1.451       .  S
C343        C344   1.403       .  A
C343        H351   1.083       .  S
C344        H352   1.084       .  S
C345        C346   1.212       .  T
C347        C348   1.213       .  T
C353        C354   1.403       .  A
C353        C358   1.404       .  A
C353        C361   1.450       .  S
C354        C355   1.402       .  A
C354        H363   1.084       .  S
C355        C356   1.402       .  A
C355        H364   1.084       .  S
C356        C357   1.404       .  A
C356        C359   1.450       .  S
C357        C358   1.404       .  A
C357        H365   1.084       .  S
C358        H366   1.084       .  S
C359        C360   1.212       .  T
C361        C362   1.212   1_655  T
C367        C368   1.402       .  A
C367        C372   1.403       .  A
C367        C375   1.449       .  S
C368        C369   1.402   1_554  A
C368        H377   1.083       .  S
C369        C370   1.403       .  A
C369        H378   1.084       .  S
C370        C371   1.403       .  A
C370        C373   1.449       .  S
C371        C372   1.403   1_556  A
C371        H379   1.083       .  S
C372        H380   1.084       .  S
C373        C374   1.211       .  T
C375        C376   1.211       .  T
C381        C382   1.404       .  A
C381        C386   1.402       .  A
C381        C389   1.452       .  S
C382        C383   1.404       .  A
C382        H391   1.083       .  S
C383        C384   1.404       .  A
C383        H392   1.084       .  S
C384        C385   1.403       .  A
C384        C387   1.451       .  S
C385        C386   1.403       .  A
C385        H393   1.083       .  S
C386        H394   1.084       .  S
C387        C388   1.212       .  T
C389        C390   1.213       .  T
C395        C396   1.402       .  A
C395        C400   1.403       .  A
C395        C403   1.446       .  S
C396        C397   1.401       .  A
C396        H405   1.083       .  S
C397        C398   1.402       .  A
C397        H406   1.084       .  S
C398        C399   1.403       .  A
C398        C401   1.447       .  S
C399        C400   1.402       .  A
C399        H407   1.083       .  S
C400        H408   1.084       .  S
C401        C402   1.210       .  T
C403        C404   1.209       .  T
C409        C410   1.403       .  A
C409        C414   1.403       .  A
C409        C417   1.449       .  S
C410        C411   1.403       .  A
C410        H419   1.084       .  S
C411        C412   1.403       .  A
C411        H420   1.084       .  S
C412        C413   1.402       .  A
C412        C415   1.448       .  S
C413        C414   1.402       .  A
C413        H421   1.084       .  S
C414        H422   1.084       .  S
C415        C416   1.211       .  T
C417        C418   1.211       .  T
C423        C424   1.402       .  A
C423        C428   1.402       .  A
C423        C431   1.444       .  S
C424        C425   1.401       .  A
C424        H433   1.084       .  S
C425        C426   1.402       .  A
C425        H434   1.083       .  S
C426        C427   1.402       .  A
C426        C429   1.443       .  S
C427        C428   1.400       .  A
C427        H435   1.084       .  S
C428        H436   1.084       .  S
C429        C430   1.208       .  T
C431        C432   1.209       .  T
C437        C438   1.403       .  A
C437        C442   1.403       .  A
C437        C445   1.449       .  S
C438        C439   1.402       .  A
C438        H447   1.084       .  S
C439        C440   1.402       .  A
C439        H448   1.084       .  S
C440        C441   1.403       .  A
C440        C443   1.448       .  S
C441        C442   1.403       .  A
C441        H449   1.084       .  S
C442        H450   1.084       .  S
C443        C444   1.211       .  T
C445        C446   1.211       .  T
C451        C452   1.403       .  A
C451        C456   1.402       .  A
C451        C459   1.448       .  S
C452        C453   1.403       .  A
C452        H461   1.084       .  S
C453        C454   1.404       .  A
C453        H462   1.083       .  S
C454        C455   1.402       .  A
C454        C457   1.448       .  S
C455        C456   1.401       .  A
C455        H463   1.084       .  S
C456        H464   1.083       .  S
C457        C458   1.211       .  T
C459        C460   1.211       .  T
C465        C466   1.402       .  A
C465        C470   1.404       .  A
C465        C473   1.449       .  S
C466        C467   1.402       .  A
C466        H475   1.084       .  S
C467        C468   1.403       .  A
C467        H476   1.084       .  S
C468        C469   1.403       .  A
C468        C471   1.449       .  S
C469        C470   1.404       .  A
C469        H477   1.083       .  S
C470        H478   1.084       .  S
C471        C472   1.212       .  T
C473        C474   1.212       .  T
C479        C480   1.402       .  A
C479        C484   1.403       .  A
C479        C487   1.449       .  S
C480        C481   1.402       .  A
C480        H489   1.084       .  S
C481        C482   1.403       .  A
C481        H490   1.084       .  S
C482        C483   1.403       .  A
C482        C485   1.450       .  S
C483        C484   1.404       .  A
C483        H491   1.084       .  S
C484        H492   1.083       .  S
C485        C486   1.211       .  T
C487        C488   1.212       .  T
C493        C494   1.403       .  A
C493        C498   1.403       .  A
C493        C501   1.447   1_545  S
C494        C495   1.403       .  A
C494        H503   1.083   1_545  S
C495        C496   1.403       .  A
C495        H504   1.084       .  S
C496        C497   1.402       .  A
C496        C499   1.447       .  S
C497        C498   1.401       .  A
C497        H505   1.084       .  S
C498        H506   1.084       .  S
C499        C500   1.210       .  T
C501        C502   1.210       .  T
C507        C508   1.403       .  A
C507        C512   1.403       .  A
C507        C515   1.448       .  S
C508        C509   1.402       .  A
C508        H517   1.084       .  S
C509        C510   1.403       .  A
C509        H518   1.083       .  S
C510        C511   1.404       .  A
C510        C513   1.451       .  S
C511        C512   1.403       .  A
C511        H519   1.084       .  S
C512        H520   1.084       .  S
C513        C514   1.213       .  T
C515        C516   1.210   1_655  T
C521        C522   1.403       .  A
C521        C526   1.403       .  A
C521        C529   1.450       .  S
C522        C523   1.402       .  A
C522        H531   1.084       .  S
C523        C524   1.403       .  A
C523        H532   1.083       .  S
C524        C525   1.404       .  A
C524        C527   1.451       .  S
C525        C526   1.404       .  A
C525        H533   1.084       .  S
C526        H534   1.083       .  S
C527        C528   1.213       .  T
C529        C530   1.211       .  T
C535        C536   1.403       .  A
C535        C540   1.402       .  A
C535        C543   1.446       .  S
C536        C537   1.404       .  A
C536        H545   1.084       .  S
C537        C538   1.404       .  A
C537        H546   1.084       .  S
C538        C539   1.401       .  A
C538        C541   1.447       .  S
C539        C540   1.400       .  A
C539        H547   1.084       .  S
C540        H548   1.084       .  S
C541        C542   1.210       .  T
C543        C544   1.209       .  T
C549        C550   1.402       .  A
C549        C554   1.402       .  A
C549        C557   1.444       .  S
C550        C551   1.399       .  A
C550        H559   1.084       .  S
C551        C552   1.401       .  A
C551        H560   1.084       .  S
C552        C553   1.404       .  A
C552        C555   1.447       .  S
C553        C554   1.404       .  A
C553        H561   1.083       .  S
C554        H562   1.083       .  S
C555        C556   1.210       .  T
C557        C558   1.208       .  T
C563        C564   1.403       .  A
C563        C568   1.403       .  A
C563        C571   1.448       .  S
C564        C565   1.400       .  A
C564        H573   1.083       .  S
C565        C566   1.402       .  A
C565        H574   1.084       .  S
C566        C567   1.403       .  A
C566        C569   1.447       .  S
C567        C568   1.404       .  A
C567        H575   1.083       .  S
C568        H576   1.083       .  S
C569        C570   1.210       .  T
C571        C572   1.211       .  T
C577        C578   1.403       .  A
C577        C582   1.403       .  A
C577        C585   1.450       .  S
C578        C579   1.403       .  A
C578        H587   1.084       .  S
C579        C580   1.403       .  A
C579        H588   1.083       .  S
C580        C581   1.403       .  A
C580        C583   1.449       .  S
C581        C582   1.402       .  A
C581        H589   1.084       .  S
C582        H590   1.083       .  S
C583        C584   1.211       .  T
C585        C586   1.212       .  T
C591        C592   1.404       .  A
C591        C596   1.401       .  A
C591        C599   1.448       .  S
C592        C593   1.405       .  A
C592        H601   1.084       .  S
C593        C594   1.404       .  A
C593        H602   1.084       .  S
C594        C595   1.402       .  A
C594        C597   1.449       .  S
C595        C596   1.400       .  A
C595        H603   1.084       .  S
C596        H604   1.084       .  S
C597        C598   1.212       .  T
C599        C600   1.211       .  T
C605        C606   1.401       .  A
C605        C610   1.405       .  A
C605        C613   1.448       .  S
C606        C607   1.399       .  A
C606        H615   1.084       .  S
C607        C608   1.403       .  A
C607        H616   1.084       .  S
C608        C609   1.402       .  A
C608        C611   1.447       .  S
C609        C610   1.405       .  A
C609        H617   1.084       .  S
C610        H618   1.083       .  S
C611        C612   1.209       .  T
C613        C614   1.211       .  T
C619        C620   1.402       .  A
C619        C624   1.402       .  A
C619        C627   1.443       .  S
C620        C621   1.399       .  A
C620        H629   1.084       .  S
C621        C622   1.401       .  A
C621        H630   1.083       .  S
C622        C623   1.402       .  A
C622        C625   1.443   1_455  S
C623        C624   1.401       .  A
C623        H631   1.084       .  S
C624        H632   1.083       .  S
C625        C626   1.208       .  T
C627        C628   1.207       .  T
C633        C634   1.403       .  A
C633        C638   1.402       .  A
C633        C641   1.445       .  S
C634        C635   1.402       .  A
C634        H643   1.084       .  S
C635        C636   1.402       .  A
C635        H644   1.084       .  S
C636        C637   1.402       .  A
C636        C639   1.446       .  S
C637        C638   1.401       .  A
C637        H645   1.084       .  S
C638        H646   1.084       .  S
C639        C640   1.210       .  T
C641        C642   1.209       .  T
C647        C648   1.402       .  A
C647        C652   1.403       .  A
C647        C655   1.447       .  S
C648        C649   1.401       .  A
C648        H657   1.083       .  S
C649        C650   1.403       .  A
C649        H658   1.084       .  S
C650        C651   1.403       .  A
C650        C653   1.448       .  S
C651        C652   1.403       .  A
C651        H659   1.083       .  S
C652        H660   1.084       .  S
C653        C654   1.210       .  T
C655        C656   1.210       .  T
C661        C662   1.405   1_565  A
C661        C666   1.402       .  A
C661        C669   1.451       .  S
C662        C663   1.406       .  A
C662        H671   1.083   1_545  S
C663        C664   1.404       .  A
C663        H672   1.083       .  S
C664        C665   1.402       .  A
C664        C667   1.449       .  S
C665        C666   1.400   1_545  A
C665        H673   1.084       .  S
C666        H674   1.084       .  S
C667        C668   1.211       .  T
C669        C670   1.213       .  T
C675        C676   1.402       .  A
C675        C680   1.404       .  A
C675        C683   1.448       .  S
C676        C677   1.400       .  A
C676        H685   1.083       .  S
C677        C678   1.401       .  A
C677        H686   1.084       .  S
C678        C679   1.403       .  A
C678        C681   1.446       .  S
C679        C680   1.404       .  A
C679        H687   1.084       .  S
C680        H688   1.084       .  S
C681        C682   1.210       .  T
C683        C684   1.211       .  T
C689        C690   1.403       .  A
C689        C694   1.402       .  A
C689        C697   1.447       .  S
C690        C691   1.403       .  A
C690        H699   1.084       .  S
C691        C692   1.403       .  A
C691        H700   1.083       .  S
C692        C693   1.402       .  A
C692        C695   1.449       .  S
C693        C694   1.401       .  A
C693        H701   1.084       .  S
C694        H702   1.084       .  S
C695        C696   1.212       .  T
C697        C698   1.209       .  T
C703        C704   1.402       .  A
C703        C708   1.403       .  A
C703        C711   1.446       .  S
C704        C705   1.400       .  A
C704        H713   1.084       .  S
C705        C706   1.402   1_556  A
C705        H714   1.084   1_556  S
C706        C707   1.402   1_554  A
C706        C709   1.445       .  S
C707        C708   1.402       .  A
C707        H715   1.083   1_556  S
C708        H716   1.084       .  S
C709        C710   1.209       .  T
C711        C712   1.210       .  T
