geometry optimzed in LAMMPS
_audit_creation_date              2020-11-30 
_audit_creation_method            'lammps2cif' 
_symmetry_space_group_name_H-M    'P1' 
_symmetry_Int_Tables_number       1 
_symmetry_cell_setting            triclinic 
loop_ 
_symmetry_equiv_pos_as_xyz 
  x,y,z 
_cell_length_a                    28.76059105 
_cell_length_b                    39.46275282692407 
_cell_length_c                    26.330970357446944 
_cell_angle_alpha                 89.68764658615594 
_cell_angle_beta                  89.85963866343265 
_cell_angle_gamma                 90.04388746989603 
loop_ 
_atom_site_label 
_atom_site_type_symbol 
_atom_site_fract_x 
_atom_site_fract_y 
_atom_site_fract_z 
_atom_site_charge 
C1          C  0.29259285  0.53776508  0.74913558     0.80500
N2          N  0.31303919  0.56323246  0.77542336    -0.77800
C3          C  0.29525956  0.57385165  0.82021955     0.82900
N4          N  0.25640800  0.55882451  0.83894936    -0.77800
C5          C  0.23509950  0.53350679  0.81314089     0.83000
N6          N  0.25325566  0.52307412  0.76801071    -0.79500
C7          C  0.58012209  0.41007218  0.12983411     0.80500
N8          N  0.55821150  0.38561993  0.10267576    -0.77800
C9          C  0.57754649  0.37347486  0.05944263     0.82900
N10         N  0.61933844  0.38553656  0.04381803    -0.77800
C11         C  0.64197109  0.40967430  0.07075994     0.83000
N12         N  0.62218649  0.42200902  0.11385935    -0.79500
Zn13       Zn  0.44878062  0.51426772  0.47860462     1.49700
Zn14       Zn  0.41518555  0.48537218  0.37254453     1.49400
Zn15       Zn  0.49565894  0.44715844  0.43396020     1.49100
Zn16       Zn  0.38998124  0.44510491  0.47376132     1.49500
O17         O  0.43748893  0.47286376  0.43995036    -1.83900
O18         O  0.43883175  0.55716335  0.43713744    -0.74500
O19         O  0.45523578  0.46525819  0.31817056    -0.74300
O20         O  0.54847016  0.46998194  0.47077144    -0.73800
O21         O  0.41826174  0.53563657  0.36305819    -0.74500
O22         O  0.51523473  0.51633271  0.50169572    -0.74100
O23         O  0.51428332  0.44220983  0.36018392    -0.74700
O24         O  0.41426212  0.39789570  0.48781746    -0.74100
O25         O  0.34932956  0.47010641  0.35993434    -0.74800
O26         O  0.48855583  0.40036474  0.46420093    -0.74200
O27         O  0.33304222  0.44098085  0.42999324    -0.74700
O28         O  0.36895745  0.46626138  0.54011820    -0.74600
O29         O  0.40740504  0.51507160  0.54008968    -0.74400
C30         C  0.42792949  0.56104935  0.39063586     0.77400
C31         C  0.49404943  0.44983201  0.31865159     0.77900
C32         C  0.55074008  0.49755773  0.49548275     0.76900
C33         C  0.45419281  0.38426548  0.48314114     0.77200
C34         C  0.32140588  0.45225612  0.38643884     0.78400
C35         C  0.37832808  0.49469384  0.56045588     0.77400
C36         C  0.37455720  0.72183457  0.00162753     0.80500
N37         N  0.36897023  0.69233253  0.97613865    -0.77800
C38         C  0.35947448  0.69237474  0.92567260     0.82900
N39         N  0.35544387  0.72241582  0.90058575    -0.77800
C40         C  0.36067776  0.75215647  0.92563647     0.83000
N41         N  0.36993396  0.75162993  0.97612348    -0.79500
C42         C  0.41935005  0.75423713  0.29466980     0.80500
N43         N  0.41141117  0.75346244  0.24390596    -0.77800
C44         C  0.40812573  0.72391635  0.21851180     0.82900
N45         N  0.41288840  0.69455967  0.24459274    -0.77800
C46         C  0.42097080  0.69423264  0.29539660     0.83000
N47         N  0.42419801  0.72433321  0.32060146    -0.79500
C48         C  0.29634537  0.90998891  0.75270500     0.80500
N49         N  0.31667813  0.88450005  0.77952932    -0.77800
C50         C  0.29793087  0.87308598  0.82361876     0.82900
N51         N  0.25798105  0.88711992  0.84085162    -0.77800
C52         C  0.23662028  0.91241868  0.81468202     0.83000
N53         N  0.25588063  0.92372696  0.77029785    -0.79500
C54         C  0.58605774  0.04531756  0.13337902     0.80500
N55         N  0.56266440  0.06813479  0.10437074    -0.77800
C56         C  0.57957780  0.07826570  0.05863906     0.82900
N57         N  0.62046533  0.06526600  0.04164031    -0.77800
C58         C  0.64469045  0.04283962  0.07067695     0.83000
N59         N  0.62755098  0.03307175  0.11670384    -0.79500
Zn60       Zn  0.39380874  0.00055690  0.47490758     1.49700
Zn61       Zn  0.42070648  0.96279006  0.37231464     1.49400
Zn62       Zn  0.49967129  0.00052110  0.43646348     1.49100
Zn63       Zn  0.45354768  0.93204293  0.47928951     1.49500
O64         O  0.44195628  0.97396094  0.44078528    -1.83900
O65         O  0.33745821  0.00548827  0.43037509    -0.74500
O66         O  0.46220225  0.98430503  0.31929886    -0.74300
O67         O  0.49180612  0.04642357  0.46868762    -0.73800
O68         O  0.35479067  0.97877510  0.35898141    -0.74500
O69         O  0.41736659  0.04745658  0.49164883    -0.74100
O70         O  0.51977391  0.00750856  0.36333790    -0.74700
O71         O  0.52019739  0.92985327  0.50249675    -0.74100
O72         O  0.42258698  0.91223134  0.36248685    -0.74800
O73         O  0.55182521  0.97760895  0.47370170    -0.74200
O74         O  0.44233548  0.89004779  0.43695087    -0.74700
O75         O  0.41317298  0.93018210  0.54206613    -0.74600
O76         O  0.37281695  0.97809503  0.54061892    -0.74400
C77         C  0.32635961  0.99565642  0.38603140     0.77400
C78         C  0.50050870  0.00048329  0.32115389     0.77900
C79         C  0.45711698  0.06158268  0.48827714     0.76900
C80         C  0.55491894  0.94966107  0.49774876     0.77200
C81         C  0.43108971  0.88652347  0.39052370     0.78400
C82         C  0.38356119  0.95013855  0.56203174     0.77400
C83         C  0.47427082  0.25318689  0.57668167     0.80500
N84         N  0.48152119  0.25363605  0.62768548    -0.77800
C85         C  0.48495144  0.22425351  0.65459483     0.82900
N86         N  0.48205425  0.19431838  0.62951465    -0.77800
C87         C  0.47457676  0.19357513  0.57863120     0.83000
N88         N  0.47000825  0.22308752  0.55230736    -0.79500
C89         C  0.50210339  0.22621139  0.87482923     0.80500
N90         N  0.50685337  0.25573085  0.90086686    -0.77800
C91         C  0.51394060  0.25544597  0.95197767     0.82900
N92         N  0.51676046  0.22527146  0.97670505    -0.77800
C93         C  0.51237864  0.19558877  0.95144576     0.83000
N94         N  0.50541941  0.19627046  0.90045926    -0.79500
C95         C  0.08438246  0.40473774  0.24585525     0.80500
N96         N  0.06507738  0.37901733  0.27322190    -0.77800
C97         C  0.08473898  0.36802851  0.31697183     0.82900
N98         N  0.12415475  0.38300331  0.33352027    -0.77800
C99         C  0.14438648  0.40851283  0.30679179     0.83000
N100        N  0.12449234  0.41932764  0.26268525    -0.79500
C101        C  0.78918367  0.54337390  0.63166501     0.80500
N102        N  0.74785505  0.53040495  0.61555875    -0.77800
C103        C  0.72762815  0.54268437  0.57259220     0.82900
N104        N  0.74872564  0.56792996  0.54621348    -0.77800
C105        C  0.78986349  0.58095101  0.56155889     0.83000
N106        N  0.80999799  0.56869548  0.60452973    -0.79500
Zn107      Zn  0.87954103  0.50183077  0.93401988     1.49700
Zn108      Zn  0.98482937  0.49812891  0.97458501     1.49400
Zn109      Zn  0.92238960  0.43181376  0.97622277     1.49100
Zn110      Zn  0.95792438  0.46292292  0.87015513     1.49500
O111        O  0.93596465  0.47368482  0.93865800    -1.83900
O112        O  0.89112475  0.54849177  0.96311565    -0.74500
O113        O  0.00487382  0.47400951  0.03815430    -0.74300
O114        O  0.85559502  0.43109976  0.99853233    -0.73800
O115        O  0.96243349  0.54422086  0.99514074    -0.74500
O116        O  0.82632055  0.48070191  0.97404387    -0.74100
O117        O  0.96213879  0.42728647  0.03928610    -0.74700
O118        O  0.95739189  0.41237899  0.85954323    -0.74100
O119        O  0.04227410  0.50314704  0.93154163    -0.74800
O120        O  0.93290414  0.39057566  0.93272185    -0.74200
O121        O  0.02398693  0.47897994  0.85843097    -0.74700
O122        O  0.91632852  0.48393393  0.81669996    -0.74600
O123        O  0.85878487  0.50741436  0.86060597    -0.74400
C124        C  0.92516459  0.56090556  0.98772017     0.77400
C125        C  0.99312508  0.44614829  0.05901198     0.77900
C126        C  0.82200522  0.45204832  0.99613680     0.76900
C127        C  0.94677905  0.38686814  0.88713889     0.77200
C128        C  0.05310906  0.49422966  0.88664193     0.78400
C129        C  0.87781399  0.49986373  0.81833857     0.77400
C130        C  0.95085442  0.19468391  0.79406094     0.80500
N131        N  0.95012724  0.22474252  0.81940524    -0.77800
C132        C  0.95473840  0.25451364  0.79319439     0.82900
N133        N  0.95956633  0.25382406  0.74191503    -0.77800
C134        C  0.96000589  0.22419653  0.71630205     0.83000
N135        N  0.95579611  0.19486451  0.74275013    -0.79500
C136        C  0.00145657  0.22045158  0.50091578     0.80500
N137        N  0.00956615  0.25002560  0.47573837    -0.77800
C138        C  0.02207073  0.24998710  0.42608226     0.82900
N139        N  0.02681195  0.22016623  0.40145150    -0.77800
C140        C  0.01958233  0.19042729  0.42619571     0.83000
N141        N  0.00726891  0.19065134  0.47602704    -0.79500
C142        C  0.08457105  0.03702167  0.24833416     0.80500
N143        N  0.12604294  0.02396127  0.26434134    -0.77800
C144        C  0.14564938  0.03518703  0.30830028     0.82900
N145        N  0.12356736  0.05938595  0.33561310    -0.77800
C146        C  0.08269324  0.07259824  0.32000559     0.83000
N147        N  0.06357789  0.06150981  0.27627930    -0.79500
C148        C  0.79881375  0.91294023  0.62824990     0.80500
N149        N  0.82112328  0.88928553  0.59991068    -0.77800
C150        C  0.80130954  0.87701095  0.55711562     0.82900
N151        N  0.75869620  0.88820754  0.54308037    -0.77800
C152        C  0.73598298  0.91172878  0.57106905     0.83000
N153        N  0.75600326  0.92403042  0.61387012    -0.79500
Zn154      Zn  0.96015083  0.98629071  0.87286374     1.49700
Zn155      Zn  0.92336149  0.01508040  0.97901579     1.49400
Zn156      Zn  0.87999997  0.94622496  0.93404350     1.49100
Zn157      Zn  0.98517935  0.94770066  0.97455625     1.49500
O158        O  0.93685270  0.97380533  0.94020501    -1.83900
O159        O  0.95747461  0.03665481  0.86372759    -0.74500
O160        O  0.85671092  0.01527655  0.00310333    -0.74300
O161        O  0.86200624  0.94123773  0.86054325    -0.73800
O162        O  0.93241925  0.05796151  0.93649919    -0.74500
O163        O  0.91974522  0.96646274  0.81868725    -0.74100
O164        O  0.82550476  0.96905574  0.96919931    -0.74700
O165        O  0.96209765  0.90116288  0.99233090    -0.74100
O166        O  0.96432632  0.01736597  0.04092105    -0.74800
O167        O  0.88946685  0.89878479  0.96381644    -0.74200
O168        O  0.00546284  0.96987394  0.03941806    -0.74700
O169        O  0.04243961  0.94304827  0.93104835    -0.74600
O170        O  0.02650357  0.97092809  0.85999633    -0.74400
C171        C  0.94596059  0.06197641  0.89071130     0.77400
C172        C  0.82184893  0.99612752  0.99513336     0.77900
C173        C  0.88154304  0.95016385  0.81913200     0.76900
C174        C  0.92416276  0.88508853  0.98599640     0.77200
C175        C  0.99452182  0.99767392  0.06057201     0.78400
C176        C  0.05444625  0.95362094  0.88714484     0.77400
C177        C  0.86917738  0.72697965  0.37382703     0.80500
N178        N  0.86201149  0.69795543  0.40069508    -0.77800
C179        C  0.85350010  0.69888870  0.45142501     0.82900
N180        N  0.85162638  0.72924716  0.47523358    -0.77800
C181        C  0.85803463  0.75852893  0.44882537     0.83000
N182        N  0.86654498  0.75724063  0.39811421    -0.79500
C183        C  0.90678238  0.75243629  0.07754334     0.80500
N184        N  0.90877396  0.72229982  0.05271889    -0.77800
C185        C  0.90548311  0.69270487  0.07946505     0.82900
N186        N  0.89956046  0.69361241  0.13072085    -0.77800
C187        C  0.89657245  0.72357711  0.15552819     0.83000
N188        N  0.90070434  0.75274655  0.12860738    -0.79500
C189        C  0.87194231  0.75545102  0.28887760    -0.21000
C190        C  0.87723100  0.72585134  0.31815710    -0.09100
C191        C  0.88941159  0.69550407  0.29345701     0.29800
C192        C  0.89545710  0.69494808  0.24074142    -0.21000
C193        C  0.88986905  0.72454557  0.21144346    -0.09100
C194        C  0.87808521  0.75493437  0.23628630     0.29800
F195        F  0.87162331  0.78421715  0.20996222    -0.19600
H196        H  0.86236019  0.77916098  0.30656877     0.18200
H197        H  0.90495329  0.67125622  0.22293709     0.18200
F198        F  0.89624108  0.66638599  0.32007517    -0.23200
C199        C  0.94605975  0.84185297  0.05043773    -0.21000
C200        C  0.92062393  0.85020587  0.00670248    -0.09100
C201        C  0.89243293  0.82521935  0.98424120     0.29800
C202        C  0.88951936  0.79266034  0.00588136    -0.21000
C203        C  0.91365059  0.78499916  0.05078317    -0.09100
C204        C  0.94229060  0.80982236  0.07259236     0.29800
F205        F  0.96671084  0.80310433  0.11556450    -0.19600
H206        H  0.96808933  0.86052891  0.06844177     0.18200
H207        H  0.86720202  0.77384861  0.98864907     0.18200
F208        F  0.86804266  0.83215791  0.94138476    -0.19600
C209        C  0.79139898  0.93010960  0.71887236    -0.21000
C210        C  0.81968218  0.92439792  0.67624465    -0.09100
C211        C  0.86814695  0.92784729  0.68076539     0.29800
C212        C  0.88782285  0.93667701  0.72722650    -0.21000
C213        C  0.85973566  0.94145644  0.77026362    -0.09100
C214        C  0.81118633  0.93817510  0.76573128     0.29800
F215        F  0.78283061  0.94316477  0.80629839    -0.19600
H216        H  0.75399511  0.92738227  0.71624805     0.18200
H217        H  0.92526663  0.93915538  0.72977266     0.18200
F218        F  0.89651699  0.92296247  0.64018453    -0.19600
C219        C  0.81717504  0.84768315  0.47561138    -0.21000
C220        C  0.82335089  0.84941214  0.52837799    -0.09100
C221        C  0.84614850  0.82275595  0.55366762     0.29800
C222        C  0.85936134  0.79383044  0.52694884    -0.21000
C223        C  0.85097989  0.79129434  0.47456144    -0.09100
C224        C  0.83131631  0.81908948  0.44867086     0.29800
F225        F  0.82260474  0.81778151  0.39807801    -0.19600
H226        H  0.79992122  0.86809217  0.45543788     0.18200
H227        H  0.87475528  0.77285592  0.54761107     0.18200
F228        F  0.85249142  0.82346887  0.60472296    -0.19600
C229        C  0.02524096  0.04535328  0.18055327    -0.21000
C230        C  0.06217504  0.02602400  0.20034036    -0.09100
C231        C  0.07617205  0.99675096  0.17408015     0.29800
C232        C  0.05396315  0.98757894  0.12883937    -0.21000
C233        C  0.01740837  0.00729147  0.10888886    -0.09100
C234        C  0.00311275  0.03623544  0.13565542     0.29800
F235        F  0.96755309  0.05588086  0.11881813    -0.19600
H236        H  0.01330877  0.06797277  0.19968291     0.18200
H237        H  0.06555495  0.96499769  0.10935453     0.18200
F238        F  0.11072179  0.97669342  0.19223064    -0.19600
C239        C  0.05116616  0.13182367  0.42693957    -0.21000
C240        C  0.02976941  0.15837266  0.40017836    -0.09100
C241        C  0.02232425  0.15514937  0.34766402     0.29800
C242        C  0.03746954  0.12624980  0.32221219    -0.21000
C243        C  0.06129165  0.10057748  0.34846116    -0.09100
C244        C  0.06732544  0.10328678  0.40128483     0.29800
F245        F  0.08951552  0.07865329  0.42801363    -0.19600
H246        H  0.05742303  0.13388048  0.46734763     0.18200
H247        H  0.03249376  0.12470402  0.28153328     0.18200
F248        F  0.00122633  0.18020867  0.32075612    -0.19600
C249        C  0.96688810  0.13287378  0.79559521    -0.21000
C250        C  0.94961446  0.16147494  0.82093738    -0.09100
C251        C  0.93155922  0.15732625  0.87036915     0.29800
C252        C  0.93083066  0.12506412  0.89336630    -0.21000
C253        C  0.94798280  0.09645233  0.86752293    -0.09100
C254        C  0.96616430  0.10095289  0.81821033     0.29800
F255        F  0.98341019  0.07454489  0.79124999    -0.19600
H256        H  0.98143973  0.13506947  0.75772697     0.18200
H257        H  0.91627179  0.12242714  0.93116207     0.18200
F258        F  0.91349586  0.18407259  0.89587681    -0.19600
C259        C  0.98520275  0.25222189  0.58074264    -0.21000
C260        C  0.98831191  0.22102368  0.55543194    -0.09100
C261        C  0.97946877  0.19101299  0.58305675     0.29800
C262        C  0.96941425  0.19239393  0.63493873    -0.21000
C263        C  0.96767761  0.22357298  0.66054129    -0.09100
C264        C  0.97492930  0.25361811  0.63247139     0.29800
F265        F  0.97280936  0.28451157  0.65471550    -0.19600
H266        H  0.99128132  0.27584081  0.56068515     0.18200
H267        H  0.96355056  0.16880379  0.65515416     0.18200
F268        F  0.98085738  0.16020427  0.56043231    -0.19600
C269        C  0.89926886  0.62142640  0.98299634    -0.21000
C270        C  0.92098448  0.59499991  0.00987251    -0.09100
C271        C  0.93792471  0.60111046  0.05895793     0.29800
C272        C  0.93250716  0.63291044  0.08102187    -0.21000
C273        C  0.91110601  0.65953214  0.05426872    -0.09100
C274        C  0.89496835  0.65367137  0.00465255     0.29800
F275        F  0.87385963  0.67869713  0.97773596    -0.19600
H276        H  0.88601328  0.61714762  0.94510527     0.18200
H277        H  0.94540351  0.63677268  0.11917019     0.18200
F278        F  0.95832740  0.57597352  0.08636921    -0.19600
C279        C  0.97368396  0.34797449  0.81880190    -0.21000
C280        C  0.95056368  0.35236539  0.86530026    -0.09100
C281        C  0.93087832  0.32374149  0.88949439     0.29800
C282        C  0.93334255  0.29176888  0.86667149    -0.21000
C283        C  0.95525786  0.28771416  0.81938202    -0.09100
C284        C  0.97624801  0.31618031  0.79615527     0.29800
F285        F  0.99979565  0.31344933  0.75162295    -0.19600
H286        H  0.98988926  0.36928344  0.79961320     0.18200
H287        H  0.91696459  0.27035164  0.88538636     0.18200
F288        F  0.90808482  0.32666320  0.93444176    -0.19600
C289        C  0.80631357  0.51370894  0.76784604    -0.21000
C290        C  0.85490846  0.50995528  0.77007855    -0.09100
C291        C  0.88130462  0.51627515  0.72589363     0.29800
C292        C  0.85960425  0.52704962  0.68113471    -0.21000
C293        C  0.81112475  0.53076682  0.67891959    -0.09100
C294        C  0.78448554  0.52354720  0.72254591     0.29800
F295        F  0.73755685  0.52719479  0.72196807    -0.19600
H296        H  0.78515471  0.50884005  0.80117210     0.18200
H297        H  0.88076978  0.53237175  0.64795665     0.18200
F298        F  0.92828530  0.51304051  0.72623056    -0.19600
C299        C  0.81862617  0.64123866  0.45378407    -0.21000
C300        C  0.84153505  0.66748257  0.47933939    -0.09100
C301        C  0.85004863  0.66406402  0.53175879     0.29800
C302        C  0.83522697  0.63503001  0.55799886    -0.21000
C303        C  0.81058555  0.60945909  0.53272498    -0.09100
C304        C  0.80278821  0.61271851  0.48014900     0.29800
F305        F  0.77935916  0.58851502  0.45414159    -0.19600
H306        H  0.81132916  0.64334560  0.41355936     0.18200
H307        H  0.84134641  0.63319648  0.59847966     0.18200
F308        F  0.87230969  0.68884433  0.55773966    -0.19600
C309        C  0.01999935  0.40012224  0.18251144    -0.21000
C310        C  0.06140939  0.41605250  0.19808905    -0.09100
C311        C  0.07972308  0.44231826  0.16759020     0.29800
C312        C  0.05726182  0.45193295  0.12265631    -0.21000
C313        C  0.01618798  0.43568041  0.10696819    -0.09100
C314        C  0.99764456  0.40970204  0.13767970     0.29800
F315        F  0.95748324  0.39378143  0.12501827    -0.19600
H316        H  0.00453026  0.38002717  0.20506147     0.18200
H317        H  0.07236722  0.47206435  0.09986219     0.18200
F318        F  0.11928305  0.45879095  0.18080859    -0.19600
C319        C  0.07568291  0.33514630  0.39738349    -0.21000
C320        C  0.06480114  0.33923859  0.34569123    -0.09100
C321        C  0.03717103  0.31463773  0.32163886     0.29800
C322        C  0.02239061  0.28599974  0.34851131    -0.21000
C323        C  0.03404595  0.28173388  0.39981558    -0.09100
C324        C  0.06025862  0.30677452  0.42438851     0.29800
F325        F  0.07327379  0.30290776  0.47361473    -0.19600
H326        H  0.09686541  0.35369301  0.41682465     0.18200
H327        H  0.00231964  0.26682871  0.32900809     0.18200
F328        F  0.02621614  0.31731978  0.27167119    -0.19600
C329        C  0.50345424  0.19594083  0.79156481    -0.21000
C330        C  0.49698458  0.22624797  0.81853103    -0.09100
C331        C  0.48678167  0.25602736  0.79090348     0.29800
C332        C  0.48349775  0.25524286  0.73780914    -0.21000
C333        C  0.49005365  0.22486411  0.71090523    -0.09100
C334        C  0.50015997  0.19514130  0.73865477     0.29800
F335        F  0.50744358  0.16515461  0.71494317    -0.19600
H336        H  0.51166802  0.17259252  0.81137467     0.18200
H337        H  0.47524132  0.27851660  0.71782095     0.18200
F338        F  0.47928316  0.28588003  0.81493655    -0.19600
C339        C  0.42768566  0.12024054  0.50247178    -0.21000
C340        C  0.46316093  0.09611964  0.50848364    -0.09100
C341        C  0.50335454  0.10487597  0.53582767     0.29800
C342        C  0.50691651  0.13677380  0.55842526    -0.21000
C343        C  0.47133495  0.16076597  0.55254908    -0.09100
C344        C  0.43203048  0.15254820  0.52359335     0.29800
F345        F  0.39700092  0.17523637  0.51763264    -0.19600
H346        H  0.39654071  0.11400732  0.48142618     0.18200
H347        H  0.53746667  0.14278349  0.58063659     0.18200
F348        F  0.53821610  0.08212516  0.54260561    -0.19600
C349        C  0.26841763  0.99877400  0.31440940    -0.21000
C350        C  0.27951390  0.00418435  0.36586305    -0.09100
C351        C  0.24541751  0.01830561  0.39781774     0.29800
C352        C  0.20199620  0.02712734  0.37865455    -0.21000
C353        C  0.19103786  0.02246397  0.32716520    -0.09100
C354        C  0.22466450  0.00790262  0.29507220     0.29800
F355        F  0.21611774  0.00370935  0.24482955    -0.19600
H356        H  0.29395411  0.98809144  0.28880349     0.18200
H357        H  0.17687434  0.03803380  0.40454991     0.18200
F358        F  0.25374023  0.02381944  0.44782692    -0.19600
C359        C  0.63127938  0.96492012  0.53650676    -0.21000
C360        C  0.60005983  0.93988165  0.51991169    -0.09100
C361        C  0.61314755  0.90561468  0.52298380     0.29800
C362        C  0.65732918  0.89681177  0.54030535    -0.21000
C363        C  0.68869885  0.92181153  0.55622386    -0.09100
C364        C  0.67508983  0.95596482  0.55527923     0.29800
F365        F  0.70480971  0.98068295  0.57026977    -0.19600
H366        H  0.62177422  0.99146220  0.53475184     0.18200
H367        H  0.66721524  0.87031857  0.54107110     0.18200
F368        F  0.58407850  0.88069483  0.50723176    -0.19600
C369        C  0.69292277  0.01509044  0.00409450    -0.21000
C370        C  0.68966063  0.02963999  0.05247039    -0.09100
C371        C  0.72981689  0.03228542  0.08247439     0.29800
C372        C  0.77273512  0.02112505  0.06375377    -0.21000
C373        C  0.77599931  0.00623315  0.01552546    -0.09100
C374        C  0.73555624  0.00295901  0.98598645     0.29800
F375        F  0.73760337  0.98935871  0.93879094    -0.19600
H376        H  0.66231135  0.01300995  0.98041269     0.18200
H377        H  0.80350803  0.02409327  0.08696016     0.18200
F378        F  0.72784430  0.04686802  0.12900286    -0.19600
C379        C  0.51652614  0.03315227  0.18689272    -0.21000
C380        C  0.56517841  0.03342118  0.18176502    -0.09100
C381        C  0.59259876  0.02257108  0.22297406     0.29800
C382        C  0.57144205  0.01217673  0.26849859    -0.21000
C383        C  0.52274632  0.01162902  0.27321128    -0.09100
C384        C  0.49545444  0.02209305  0.23181438     0.29800
F385        F  0.44834728  0.02257067  0.23518301    -0.19600
H386        H  0.49455482  0.04125856  0.15577174     0.18200
H387        H  0.59310640  0.00418256  0.29993774     0.18200
F388        F  0.63971175  0.02277236  0.21981214    -0.19600
C389        C  0.53901886  0.13520809  0.95117909    -0.21000
C390        C  0.52174609  0.16317093  0.97824395    -0.09100
C391        C  0.51844314  0.16088467  0.03154263     0.29800
C392        C  0.53518760  0.13231571  0.05709224    -0.21000
C393        C  0.55593612  0.10564161  0.03025080    -0.09100
C394        C  0.55631260  0.10677049  0.97690548     0.29800
F395        F  0.57404014  0.08065946  0.94970042    -0.19600
H396        H  0.54144999  0.13601531  0.91014092     0.18200
H397        H  0.53398750  0.13183938  0.09821638     0.18200
F398        F  0.50031174  0.18662011  0.05924871    -0.19600
C399        C  0.13417841  0.93068469  0.90147939    -0.21000
C400        C  0.10184813  0.94535155  0.86806541    -0.09100
C401        C  0.11541288  0.95118694  0.81721383     0.29800
C402        C  0.15981038  0.94153289  0.80033118    -0.21000
C403        C  0.19144615  0.92579306  0.83358013    -0.09100
C404        C  0.17825028  0.92106471  0.88473639     0.29800
F405        F  0.20782115  0.90706292  0.91901528    -0.19600
H406        H  0.12530268  0.92631439  0.94097767     0.18200
H407        H  0.16886882  0.94545119  0.76078496     0.18200
F408        F  0.08552988  0.96528314  0.78335794    -0.19600
C409        C  0.32086311  0.95704487  0.62806927    -0.21000
C410        C  0.36144430  0.94059485  0.61119474    -0.09100
C411        C  0.38066832  0.91491099  0.64187839     0.29800
C412        C  0.35939039  0.90563203  0.68753911    -0.21000
C413        C  0.31830246  0.92150438  0.70421690    -0.09100
C414        C  0.29936335  0.94763782  0.67396071     0.29800
F415        F  0.26007564  0.96407265  0.68829133    -0.19600
H416        H  0.30534400  0.97700580  0.60539278     0.18200
H417        H  0.37540950  0.88567506  0.70978279     0.18200
F418        F  0.42051719  0.89887081  0.62831088    -0.19600
C419        C  0.43368843  0.79035689  0.37213390    -0.21000
C420        C  0.42217899  0.78777506  0.32037929    -0.09100
C421        C  0.41346781  0.81797039  0.29290039     0.29800
C422        C  0.41645775  0.84938368  0.31630554    -0.21000
C423        C  0.42800820  0.85215577  0.36778433    -0.09100
C424        C  0.43664593  0.82217178  0.39572030     0.29800
F425        F  0.44803025  0.82343211  0.44565458    -0.19600
H426        H  0.44060419  0.76778060  0.39440716     0.18200
H427        H  0.40957809  0.87175707  0.29353891     0.18200
F428        F  0.40162135  0.81768835  0.24310555    -0.19600
C429        C  0.33032129  0.81117650  0.92792613    -0.21000
C430        C  0.35021191  0.78463394  0.89994030    -0.09100
C431        C  0.35638705  0.78872070  0.84725724     0.29800
C432        C  0.34121748  0.81831301  0.82300337    -0.21000
C433        C  0.31881214  0.84395729  0.85062982    -0.09100
C434        C  0.31431116  0.84041169  0.90356976     0.29800
F435        F  0.29402694  0.86500871  0.93181483    -0.19600
H436        H  0.32523954  0.80872650  0.96855055     0.18200
H437        H  0.34526958  0.82053637  0.78221687     0.18200
F438        F  0.37648649  0.76399905  0.81908537    -0.19600
C439        C  0.39288837  0.75254711  0.08162747    -0.21000
C440        C  0.38317975  0.72183728  0.05711275    -0.09100
C441        C  0.38122742  0.69184033  0.08637616     0.29800
C442        C  0.38922531  0.69281635  0.13864505    -0.21000
C443        C  0.39924056  0.72355693  0.16305948    -0.09100
C444        C  0.40081907  0.75352293  0.13378380     0.29800
F445        F  0.41068551  0.78390186  0.15497481    -0.19600
H446        H  0.39465532  0.77609739  0.06040192     0.18200
H447        H  0.38736430  0.66932518  0.16001448     0.18200
F448        F  0.37118280  0.66150887  0.06499643    -0.19600
C449        C  0.43354474  0.62482594  0.39674361    -0.21000
C450        C  0.42711371  0.59545594  0.36733045    -0.09100
C451        C  0.42065474  0.59919709  0.31464249     0.29800
C452        C  0.41948727  0.63120729  0.29245158    -0.21000
C453        C  0.42470623  0.66075772  0.32157579    -0.09100
C454        C  0.43240306  0.65722076  0.37420568     0.29800
F455        F  0.43867368  0.68481308  0.40394482    -0.19600
H456        H  0.43920701  0.62276637  0.43729430     0.18200
H457        H  0.41407088  0.63257384  0.25181056     0.18200
F458        F  0.41560862  0.57193574  0.28388774    -0.19600
C459        C  0.50105587  0.34182120  0.53064018    -0.21000
C460        C  0.46126145  0.34942200  0.50205366    -0.09100
C461        C  0.42752260  0.32412152  0.49455254     0.29800
C462        C  0.43286877  0.29212452  0.51708014    -0.21000
C463        C  0.47125939  0.28535137  0.54830557    -0.09100
C464        C  0.50579254  0.31019571  0.55416263     0.29800
F465        F  0.54400274  0.30387435  0.58284750    -0.19600
H466        H  0.52758012  0.36090009  0.53654307     0.18200
H467        H  0.40618034  0.27308717  0.51179447     0.18200
F468        F  0.38946984  0.33040557  0.46560001    -0.19600
C469        C  0.62727027  0.48508262  0.53676158    -0.21000
C470        C  0.59572739  0.50866803  0.51635269    -0.09100
C471        C  0.60781946  0.54315601  0.51511150     0.29800
C472        C  0.65062301  0.55377803  0.53393725    -0.21000
C473        C  0.68196272  0.53041158  0.55510121    -0.09100
C474        C  0.66996718  0.49587735  0.55657880     0.29800
F475        F  0.70011256  0.47253721  0.57530970    -0.19600
H476        H  0.61868116  0.45835179  0.53764692     0.18200
H477        H  0.65931847  0.58047818  0.53197826     0.18200
F478        F  0.57895723  0.56649109  0.49398810    -0.19600
C479        C  0.26553345  0.44683446  0.31376695    -0.21000
C480        C  0.27476973  0.44394233  0.36611967    -0.09100
C481        C  0.23944825  0.43185823  0.39855090     0.29800
C482        C  0.19681484  0.42170122  0.37876244    -0.21000
C483        C  0.18808383  0.42331232  0.32632881    -0.09100
C484        C  0.22261529  0.43654871  0.29389460     0.29800
F485        F  0.21599195  0.43785027  0.24290604    -0.19600
H486        H  0.29210578  0.45600603  0.28790506     0.18200
H487        H  0.17064506  0.41201797  0.40472225     0.18200
F488        F  0.24598805  0.42958977  0.44950498    -0.19600
C489        C  0.70363234  0.45441839  0.06083322    -0.21000
C490        C  0.68878138  0.42078023  0.05416415    -0.09100
C491        C  0.71885209  0.39764649  0.03029563     0.29800
C492        C  0.76236857  0.40807541  0.01285047    -0.21000
C493        C  0.77663244  0.44186452  0.01771176    -0.09100
C494        C  0.74705235  0.46507176  0.04217112     0.29800
F495        F  0.76037543  0.49776530  0.04866959    -0.19600
H496        H  0.68117210  0.47261076  0.07935300     0.18200
H497        H  0.78462647  0.38975490  0.99428926     0.18200
F498        F  0.70648108  0.36471316  0.02423128    -0.19600
C499        C  0.51016213  0.42461475  0.18110309    -0.21000
C500        C  0.55876747  0.42224499  0.17742633    -0.09100
C501        C  0.58599961  0.42965607  0.22024297     0.29800
C502        C  0.56471520  0.43844973  0.26614866    -0.21000
C503        C  0.51608023  0.44070217  0.26985572    -0.09100
C504        C  0.48892637  0.43409533  0.22662267     0.29800
F505        F  0.44179466  0.43565113  0.22870178    -0.19600
H506        H  0.48851394  0.41899496  0.14860887     0.18200
H507        H  0.58631826  0.44359410  0.29884874     0.18200
F508        F  0.63301950  0.42703187  0.21841711    -0.19600
C509        C  0.53838350  0.31727010  0.05892646    -0.21000
C510        C  0.55566188  0.34527186  0.03188922    -0.09100
C511        C  0.55517732  0.34480362  0.97857825     0.29800
C512        C  0.53912271  0.31621306  0.95278367    -0.21000
C513        C  0.52421134  0.28727810  0.97969386    -0.09100
C514        C  0.52318360  0.28838906  0.03328740     0.29800
F515        F  0.50855790  0.26138534  0.06120391    -0.19600
H516        H  0.53863629  0.31714589  0.10006303     0.18200
H517        H  0.54027291  0.31626743  0.91168763     0.18200
F518        F  0.57072266  0.37188704  0.95143219    -0.19600
C519        C  0.15652035  0.50818457  0.79830304    -0.21000
C520        C  0.19043707  0.51976110  0.83236239    -0.09100
C521        C  0.17971164  0.52073659  0.88452844     0.29800
C522        C  0.13534217  0.51189802  0.90168916    -0.21000
C523        C  0.10063644  0.50173797  0.86746929    -0.09100
C524        C  0.11201248  0.49929492  0.81549632     0.29800
F525        F  0.07980798  0.48954202  0.78093476    -0.19600
H526        H  0.16383868  0.50728433  0.75794786     0.18200
H527        H  0.12808475  0.51331450  0.94202180     0.18200
F528        F  0.21204820  0.53033530  0.91908987    -0.19600
C529        C  0.30188100  0.49498935  0.67935421    -0.21000
C530        C  0.31316304  0.52669031  0.70019786    -0.09100
C531        C  0.34528480  0.54751070  0.67425631     0.29800
C532        C  0.36583461  0.53669915  0.62928262    -0.21000
C533        C  0.35523212  0.50491556  0.60855595    -0.09100
C534        C  0.32275312  0.48405217  0.63408802     0.29800
F535        F  0.31127228  0.45307774  0.61577639    -0.19600
H536        H  0.27741022  0.47838071  0.69848745     0.18200
H537        H  0.39030166  0.55355092  0.61063392     0.18200
F538        F  0.35675706  0.57870192  0.69170835    -0.19600
C539        C  0.35200313  0.65855876  0.84628598    -0.21000
C540        C  0.34837273  0.66035589  0.89940120    -0.09100
C541        C  0.33032619  0.63230685  0.92636204     0.29800
C542        C  0.31408406  0.60398544  0.90030371    -0.21000
C543        C  0.31635825  0.60267909  0.84716855    -0.09100
C544        C  0.33652349  0.62992729  0.82031416     0.29800
F545        F  0.33886507  0.62983187  0.76883693    -0.19600
H546        H  0.36589439  0.67971145  0.82465026     0.18200
H547        H  0.29898145  0.58318138  0.92173788     0.18200
F548        F  0.32590161  0.63280176  0.97766143    -0.19600
loop_ 
_geom_bond_atom_site_label_1 
_geom_bond_atom_site_label_2 
_geom_bond_distance 
_geom_bond_site_symmetry_2 
_ccdc_geom_bond_type 
C1            N2   1.358       .  A
C1            N6   1.362       .  A
C1          C530   1.485       .  S
N2            C3   1.353       .  A
C3            N4   1.355       .  A
C3          C543   1.475       .  S
N4            C5   1.358       .  A
C5            N6   1.363       .  A
C5          C520   1.481       .  S
C7            N8   1.360       .  A
C7           N12   1.363       .  A
C7          C500   1.477       .  S
N8            C9   1.356       .  A
C9           N10   1.355       .  A
C9          C510   1.473       .  S
N10          C11   1.358       .  A
C11          N12   1.361       .  A
C11         C490   1.480       .  S
Zn13         O17   1.957       .  S
Zn13         O18   2.030       .  S
Zn13         O22   2.009       .  S
Zn13         O29   2.007       .  S
Zn14         O17   1.950       .  S
Zn14         O19   2.003       .  S
Zn14         O21   2.000       .  S
Zn14         O25   2.016       .  S
Zn15         O17   1.964       .  S
Zn15         O20   2.018       .  S
Zn15         O23   2.024       .  S
Zn15         O26   2.017       .  S
Zn16         O17   1.960       .  S
Zn16         O24   2.023       .  S
Zn16         O27   2.012       .  S
Zn16         O28   2.032       .  S
O18          C30   1.273       .  A
O19          C31   1.272       .  A
O20          C32   1.273       .  A
O21          C30   1.272       .  A
O22          C32   1.273       .  A
O23          C31   1.275       .  A
O24          C33   1.275       .  A
O25          C34   1.273       .  A
O26          C33   1.274       .  A
O27          C34   1.273       .  A
O28          C35   1.275       .  A
O29          C35   1.275       .  A
C30         C450   1.487       .  S
C31         C503   1.478       .  S
C32         C470   1.474       .  S
C33         C460   1.474       .  S
C34         C480   1.482       .  S
C35         C533   1.487       .  S
C36          N37   1.357   1_554  A
C36          N41   1.358   1_554  A
C36         C440   1.482       .  S
N37          C38   1.357       .  A
C38          N39   1.359       .  A
C38         C540   1.479       .  S
N39          C40   1.358       .  A
C40          N41   1.356       .  A
C40         C430   1.478       .  S
C42          N43   1.357       .  A
C42          N47   1.368       .  A
C42         C420   1.492       .  S
N43          C44   1.351       .  A
C44          N45   1.351       .  A
C44         C443   1.483       .  S
N45          C46   1.358       .  A
C46          N47   1.367       .  A
C46         C453   1.491       .  S
C48          N49   1.359       .  A
C48          N53   1.365       .  A
C48         C413   1.492       .  S
N49          C50   1.354       .  A
C50          N51   1.354       .  A
C50         C433   1.477       .  S
N51          C52   1.358       .  A
C52          N53   1.365       .  A
C52         C403   1.488       .  S
C54          N55   1.357       .  A
C54          N59   1.361       .  A
C54         C380   1.481       .  S
N55          C56   1.356       .  A
C56          N57   1.359       .  A
C56         C393   1.477       .  S
N57          C58   1.360       .  A
C58          N59   1.361       .  A
C58         C370   1.475       .  S
Zn60         O64   1.958   1_545  S
Zn60         O65   2.012       .  S
Zn60         O69   2.022       .  S
Zn60         O76   2.030   1_545  S
Zn61         O64   1.958       .  S
Zn61         O66   2.018       .  S
Zn61         O68   2.029       .  S
Zn61         O72   2.014       .  S
Zn62         O64   1.965   1_545  S
Zn62         O67   2.017       .  S
Zn62         O70   2.026       .  S
Zn62         O73   2.007   1_545  S
Zn63         O64   1.965       .  S
Zn63         O71   2.015       .  S
Zn63         O74   2.028       .  S
Zn63         O75   2.019       .  S
O65          C77   1.274   1_545  A
O66          C78   1.274   1_565  A
O67          C79   1.273       .  A
O68          C77   1.274       .  A
O69          C79   1.274       .  A
O70          C78   1.274       .  A
O71          C80   1.273       .  A
O72          C81   1.276       .  A
O73          C80   1.272       .  A
O74          C81   1.274       .  A
O75          C82   1.275       .  A
O76          C82   1.275       .  A
C77         C350   1.488   1_565  S
C78         C383   1.478       .  S
C79         C340   1.476       .  S
C80         C360   1.475       .  S
C81         C423   1.488       .  S
C82         C410   1.487       .  S
C83          N84   1.360       .  A
C83          N88   1.359       .  A
C83         C463   1.472       .  S
N84          C85   1.359       .  A
C85          N86   1.359       .  A
C85         C333   1.491       .  S
N86          C87   1.358       .  A
C87          N88   1.359       .  A
C87         C343   1.472       .  S
C89          N90   1.362       .  A
C89          N94   1.361       .  A
C89         C330   1.490       .  S
N90          C91   1.362       .  A
C91          N92   1.357       .  A
C91         C513   1.486       .  S
N92          C93   1.356       .  A
C93          N94   1.358       .  A
C93         C390   1.483       .  S
C95          N96   1.359       .  A
C95         N100   1.365       .  A
C95         C310   1.489       .  S
N96          C97   1.354       .  A
C97          N98   1.352       .  A
C97         C320   1.476       .  S
N98          C99   1.355       .  A
C99         N100   1.363       .  A
C99         C483   1.480       .  S
C101        N102   1.363       .  A
C101        N106   1.363       .  A
C101        C293   1.480       .  S
N102        C103   1.360       .  A
C103        N104   1.354       .  A
C103        C473   1.475       .  S
N104        C105   1.353       .  A
C105        N106   1.359       .  A
C105        C303   1.478       .  S
Zn107       O111   1.971       .  S
Zn107       O112   2.026       .  S
Zn107       O116   2.032       .  S
Zn107       O123   2.035       .  S
Zn108       O111   1.953       .  S
Zn108       O113   2.007   1_656  S
Zn108       O115   2.007       .  S
Zn108       O119   2.010   1_655  S
Zn109       O111   1.960       .  S
Zn109       O114   2.008       .  S
Zn109       O117   2.025   1_556  S
Zn109       O120   2.018       .  S
Zn110       O111   1.959       .  S
Zn110       O118   2.016       .  S
Zn110       O121   2.025   1_655  S
Zn110       O122   2.024       .  S
O112        C124   1.274       .  A
O113        C125   1.271   1_455  A
O114        C126   1.273       .  A
O115        C124   1.273       .  A
O116        C126   1.275       .  A
O117        C125   1.274       .  A
O118        C127   1.275       .  A
O119        C128   1.273       .  A
O120        C127   1.273       .  A
O121        C128   1.274       .  A
O122        C129   1.275       .  A
O123        C129   1.276       .  A
C124        C270   1.474   1_556  S
C125        C313   1.485   1_655  S
C126        C493   1.477   1_556  S
C127        C280   1.485       .  S
C128        C523   1.485       .  S
C129        C290   1.485       .  S
C130        N131   1.364       .  A
C130        N135   1.358       .  A
C130        C250   1.486       .  S
N131        C132   1.366       .  A
C132        N133   1.357       .  A
C132        C283   1.484       .  S
N133        C134   1.353       .  A
C134        N135   1.353       .  A
C134        C263   1.485       .  S
C136        N137   1.359       .  A
C136        N141   1.360       .  A
C136        C260   1.484   1_455  S
N137        C138   1.355       .  A
C138        N139   1.354       .  A
C138        C323   1.468       .  S
N139        C140   1.355       .  A
C140        N141   1.358       .  A
C140        C240   1.471       .  S
C142        N143   1.366       .  A
C142        N147   1.359       .  A
C142        C230   1.487       .  S
N143        C144   1.365       .  A
C144        N145   1.356       .  A
C144        C353   1.485       .  S
N145        C146   1.350       .  A
C146        N147   1.352       .  A
C146        C243   1.472       .  S
C148        N149   1.359       .  A
C148        N153   1.361       .  A
C148        C210   1.474       .  S
N149        C150   1.356       .  A
C150        N151   1.355       .  A
C150        C220   1.473       .  S
N151        C152   1.356       .  A
C152        N153   1.359       .  A
C152        C363   1.470       .  S
Zn154       O158   1.954       .  S
Zn154       O159   2.002   1_565  S
Zn154       O163   2.004       .  S
Zn154       O170   2.031   1_655  S
Zn155       O158   1.966   1_545  S
Zn155       O160   2.018   1_556  S
Zn155       O162   2.040       .  S
Zn155       O166   2.016   1_556  S
Zn156       O158   1.971       .  S
Zn156       O161   2.015       .  S
Zn156       O164   2.032       .  S
Zn156       O167   2.044       .  S
Zn157       O158   1.952       .  S
Zn157       O165   2.005       .  S
Zn157       O168   2.011   1_656  S
Zn157       O169   2.013   1_655  S
O159        C171   1.273       .  A
O160        C172   1.274   1_544  A
O161        C173   1.273       .  A
O162        C171   1.275       .  A
O163        C173   1.273       .  A
O164        C172   1.275       .  A
O165        C174   1.273       .  A
O166        C175   1.275   1_545  A
O167        C174   1.276       .  A
O168        C175   1.272   1_455  A
O169        C176   1.274       .  A
O170        C176   1.273       .  A
C171        C253   1.489       .  S
C172        C373   1.478   1_566  S
C173        C213   1.475       .  S
C174        C200   1.481   1_556  S
C175        C233   1.485   1_665  S
C176        C400   1.489       .  S
C177        N178   1.358       .  A
C177        N182   1.360       .  A
C177        C190   1.484       .  S
N178        C179   1.358       .  A
C179        N180   1.356       .  A
C179        C300   1.477       .  S
N180        C181   1.358       .  A
C181        N182   1.358       .  A
C181        C223   1.477       .  S
C183        N184   1.361       .  A
C183        N188   1.356       .  A
C183        C203   1.475       .  S
N184        C185   1.364       .  A
C185        N186   1.361       .  A
C185        C273   1.480       .  S
N186        C187   1.357       .  A
C187        N188   1.354       .  A
C187        C193   1.485       .  S
C189        C190   1.405       .  A
C189        C194   1.396       .  A
C189        H196   1.083       .  S
C190        C191   1.410       .  A
C191        C192   1.399       .  A
C191        F198   1.357       .  S
C192        C193   1.406       .  A
C192        H197   1.083       .  S
C193        C194   1.410       .  A
C194        F195   1.357       .  S
C199        C200   1.404       .  A
C199        C204   1.393       .  A
C199        H206   1.083       .  S
C200        C201   1.410   1_554  A
C201        C202   1.405   1_556  A
C201        F208   1.357       .  S
C202        C203   1.404       .  A
C202        H207   1.083   1_554  S
C203        C204   1.405       .  A
C204        F205   1.358       .  S
C209        C210   1.404       .  A
C209        C214   1.398       .  A
C209        H216   1.083       .  S
C210        C211   1.406       .  A
C211        C212   1.395       .  A
C211        F218   1.358       .  S
C212        C213   1.404       .  A
C212        H217   1.084       .  S
C213        C214   1.408       .  A
C214        F215   1.358       .  S
C219        C220   1.403       .  A
C219        C224   1.396       .  A
C219        H226   1.084       .  S
C220        C221   1.406       .  A
C221        C222   1.397       .  A
C221        F228   1.358       .  S
C222        C223   1.405       .  A
C222        H227   1.083       .  S
C223        C224   1.408       .  A
C224        F225   1.357       .  S
C229        C230   1.408       .  A
C229        C234   1.393       .  A
C229        H236   1.083       .  S
C230        C231   1.408   1_545  A
C231        C232   1.402       .  A
C231        F238   1.357       .  S
C232        C233   1.409   1_565  A
C232        H237   1.083       .  S
C233        C234   1.407       .  A
C234        F235   1.358   1_455  S
C239        C240   1.403       .  A
C239        C244   1.396       .  A
C239        H246   1.083       .  S
C240        C241   1.406       .  A
C241        C242   1.395       .  A
C241        F248   1.358       .  S
C242        C243   1.403       .  A
C242        H247   1.083       .  S
C243        C244   1.407       .  A
C244        F245   1.358       .  S
C249        C250   1.405       .  A
C249        C254   1.391       .  A
C249        H256   1.083       .  S
C250        C251   1.409       .  A
C251        C252   1.407       .  A
C251        F258   1.357       .  S
C252        C253   1.410       .  A
C252        H257   1.083       .  S
C253        C254   1.409       .  A
C254        F255   1.358       .  S
C259        C260   1.406       .  A
C259        C264   1.394       .  A
C259        H266   1.083       .  S
C260        C261   1.409       .  A
C261        C262   1.397       .  A
C261        F268   1.357       .  S
C262        C263   1.407       .  A
C262        H267   1.083       .  S
C263        C264   1.409       .  A
C264        F265   1.357       .  S
C269        C270   1.405   1_556  A
C269        C274   1.403   1_556  A
C269        H276   1.083       .  S
C270        C271   1.404       .  A
C271        C272   1.394       .  A
C271        F278   1.358       .  S
C272        C273   1.405       .  A
C272        H277   1.083       .  S
C273        C274   1.408       .  A
C274        F275   1.357   1_554  S
C279        C280   1.403       .  A
C279        C284   1.394       .  A
C279        H286   1.083       .  S
C280        C281   1.411       .  A
C281        C282   1.402       .  A
C281        F288   1.357       .  S
C282        C283   1.404       .  A
C282        H287   1.083       .  S
C283        C284   1.411       .  A
C284        F285   1.358       .  S
C289        C290   1.407       .  A
C289        C294   1.402       .  A
C289        H296   1.083       .  S
C290        C291   1.409       .  A
C291        C292   1.399       .  A
C291        F298   1.357       .  S
C292        C293   1.403       .  A
C292        H297   1.083       .  S
C293        C294   1.407       .  A
C294        F295   1.358       .  S
C299        C300   1.403       .  A
C299        C304   1.395       .  A
C299        H306   1.083       .  S
C300        C301   1.408       .  A
C301        C302   1.400       .  A
C301        F308   1.357       .  S
C302        C303   1.404       .  A
C302        H307   1.083       .  S
C303        C304   1.408       .  A
C304        F305   1.358       .  S
C309        C310   1.409       .  A
C309        C314   1.396   1_455  A
C309        H316   1.083       .  S
C310        C311   1.409       .  A
C311        C312   1.400       .  A
C311        F318   1.357       .  S
C312        C313   1.408       .  A
C312        H317   1.083       .  S
C313        C314   1.406   1_455  A
C314        F315   1.358       .  S
C319        C320   1.406       .  A
C319        C324   1.395       .  A
C319        H326   1.083       .  S
C320        C321   1.408       .  A
C321        C322   1.396       .  A
C321        F328   1.357       .  S
C322        C323   1.402       .  A
C322        H327   1.084       .  S
C323        C324   1.404       .  A
C324        F325   1.358       .  S
C329        C330   1.406       .  A
C329        C334   1.397       .  A
C329        H336   1.083       .  S
C330        C331   1.410       .  A
C331        C332   1.402       .  A
C331        F338   1.357       .  S
C332        C333   1.408       .  A
C332        H337   1.083       .  S
C333        C334   1.409       .  A
C334        F335   1.357       .  S
C339        C340   1.405       .  A
C339        C344   1.399       .  A
C339        H346   1.083       .  S
C340        C341   1.407       .  A
C341        C342   1.399       .  A
C341        F348   1.358       .  S
C342        C343   1.403       .  A
C342        H347   1.084       .  S
C343        C344   1.404       .  A
C344        F345   1.357       .  S
C349        C350   1.410   1_565  A
C349        C354   1.405   1_565  A
C349        H356   1.083       .  S
C350        C351   1.408       .  A
C351        C352   1.392       .  A
C351        F358   1.358       .  S
C352        C353   1.406       .  A
C352        H357   1.083       .  S
C353        C354   1.408       .  A
C354        F355   1.357       .  S
C359        C360   1.407       .  A
C359        C364   1.400       .  A
C359        H366   1.083       .  S
C360        C361   1.406       .  A
C361        C362   1.395       .  A
C361        F368   1.358       .  S
C362        C363   1.403       .  A
C362        H367   1.084       .  S
C363        C364   1.404       .  A
C364        F365   1.357       .  S
C369        C370   1.403       .  A
C369        C374   1.400   1_554  A
C369        H376   1.083   1_554  S
C370        C371   1.405       .  A
C371        C372   1.400       .  A
C371        F378   1.357       .  S
C372        C373   1.405       .  A
C372        H377   1.083       .  S
C373        C374   1.407   1_554  A
C374        F375   1.357   1_545  S
C379        C380   1.405       .  A
C379        C384   1.395       .  A
C379        H386   1.083       .  S
C380        C381   1.408       .  A
C381        C382   1.402       .  A
C381        F388   1.357       .  S
C382        C383   1.406       .  A
C382        H387   1.083       .  S
C383        C384   1.405       .  A
C384        F385   1.358       .  S
C389        C390   1.407       .  A
C389        C394   1.400       .  A
C389        H396   1.083       .  S
C390        C391   1.409   1_556  A
C391        C392   1.396       .  A
C391        F398   1.357       .  S
C392        C393   1.404       .  A
C392        H397   1.083       .  S
C393        C394   1.405   1_554  A
C394        F395   1.357       .  S
C399        C400   1.405       .  A
C399        C404   1.395       .  A
C399        H406   1.083       .  S
C400        C401   1.411       .  A
C401        C402   1.405       .  A
C401        F408   1.357       .  S
C402        C403   1.407       .  A
C402        H407   1.083       .  S
C403        C404   1.410       .  A
C404        F405   1.357       .  S
C409        C410   1.408       .  A
C409        C414   1.404       .  A
C409        H416   1.083       .  S
C410        C411   1.407       .  A
C411        C412   1.395       .  A
C411        F418   1.358       .  S
C412        C413   1.408       .  A
C412        H417   1.083       .  S
C413        C414   1.410       .  A
C414        F415   1.357       .  S
C419        C420   1.407       .  A
C419        C424   1.406       .  A
C419        H426   1.083       .  S
C420        C421   1.414       .  A
C421        C422   1.390       .  A
C421        F428   1.356       .  S
C422        C423   1.401       .  A
C422        H427   1.083       .  S
C423        C424   1.412       .  A
C424        F425   1.357       .  S
C429        C430   1.405       .  A
C429        C434   1.396       .  A
C429        H436   1.083       .  S
C430        C431   1.406       .  A
C431        C432   1.399       .  A
C431        F438   1.358       .  S
C432        C433   1.405       .  A
C432        H437   1.083       .  S
C433        C434   1.406       .  A
C434        F435   1.357       .  S
C439        C440   1.404       .  A
C439        C444   1.393       .  A
C439        H446   1.083       .  S
C440        C441   1.410       .  A
C441        C442   1.397       .  A
C441        F448   1.357       .  S
C442        C443   1.406       .  A
C442        H447   1.083       .  S
C443        C444   1.409       .  A
C444        F445   1.355       .  S
C449        C450   1.410       .  A
C449        C454   1.407       .  A
C449        H456   1.083       .  S
C450        C451   1.407       .  A
C451        C452   1.389       .  A
C451        F458   1.358       .  S
C452        C453   1.407       .  A
C452        H457   1.083       .  S
C453        C454   1.410       .  A
C454        F455   1.357       .  S
C459        C460   1.403       .  A
C459        C464   1.397       .  A
C459        H466   1.083       .  S
C460        C461   1.407       .  A
C461        C462   1.401       .  A
C461        F468   1.358       .  S
C462        C463   1.403       .  A
C462        H467   1.083       .  S
C463        C464   1.404       .  A
C464        F465   1.358       .  S
C469        C470   1.406       .  A
C469        C474   1.402       .  A
C469        H476   1.083       .  S
C470        C471   1.405       .  A
C471        C472   1.393       .  A
C471        F478   1.358       .  S
C472        C473   1.404       .  A
C472        H477   1.084       .  S
C473        C474   1.406       .  A
C474        F475   1.357       .  S
C479        C480   1.409       .  A
C479        C484   1.402       .  A
C479        H486   1.083       .  S
C480        C481   1.407       .  A
C481        C482   1.393       .  A
C481        F488   1.358       .  S
C482        C483   1.405       .  A
C482        H487   1.083       .  S
C483        C484   1.407       .  A
C484        F485   1.357       .  S
C489        C490   1.406       .  A
C489        C494   1.404       .  A
C489        H496   1.083       .  S
C490        C491   1.408       .  A
C491        C492   1.393       .  A
C491        F498   1.358       .  S
C492        C493   1.401       .  A
C492        H497   1.084   1_554  S
C493        C494   1.408       .  A
C494        F495   1.357       .  S
C499        C500   1.404       .  A
C499        C504   1.397       .  A
C499        H506   1.083       .  S
C500        C501   1.406       .  A
C501        C502   1.399       .  A
C501        F508   1.357       .  S
C502        C503   1.405       .  A
C502        H507   1.083       .  S
C503        C504   1.407       .  A
C504        F505   1.358       .  S
C509        C510   1.401       .  A
C509        C514   1.398       .  A
C509        H516   1.083       .  S
C510        C511   1.404   1_554  A
C511        C512   1.399       .  A
C511        F518   1.357       .  S
C512        C513   1.407       .  A
C512        H517   1.083       .  S
C513        C514   1.412   1_556  A
C514        F515   1.357       .  S
C519        C520   1.404       .  A
C519        C524   1.400       .  A
C519        H526   1.084       .  S
C520        C521   1.408       .  A
C521        C522   1.396       .  A
C521        F528   1.358       .  S
C522        C523   1.406       .  A
C522        H527   1.084       .  S
C523        C524   1.410       .  A
C524        F525   1.357       .  S
C529        C530   1.407       .  A
C529        C534   1.403       .  A
C529        H536   1.083       .  S
C530        C531   1.409       .  A
C531        C532   1.391       .  A
C531        F538   1.357       .  S
C532        C533   1.404       .  A
C532        H537   1.083       .  S
C533        C534   1.411       .  A
C534        F535   1.357       .  S
C539        C540   1.404       .  A
C539        C544   1.397       .  A
C539        H546   1.084       .  S
C540        C541   1.410       .  A
C541        C542   1.395       .  A
C541        F548   1.357       .  S
C542        C543   1.402       .  A
C542        H547   1.084       .  S
C543        C544   1.408       .  A
C544        F545   1.357       .  S
