geometry optimzed in LAMMPS
_audit_creation_date              2020-11-30 
_audit_creation_method            'lammps2cif' 
_symmetry_space_group_name_H-M    'P1' 
_symmetry_Int_Tables_number       1 
_symmetry_cell_setting            triclinic 
loop_ 
_symmetry_equiv_pos_as_xyz 
  x,y,z 
_cell_length_a                    63.06513012 
_cell_length_b                    63.18203244645331 
_cell_length_c                    57.00516942300735 
_cell_angle_alpha                 89.80508877026185 
_cell_angle_beta                  89.9229313065333 
_cell_angle_gamma                 89.9661807059101 
loop_ 
_atom_site_label 
_atom_site_type_symbol 
_atom_site_fract_x 
_atom_site_fract_y 
_atom_site_fract_z 
_atom_site_charge 
In1        In  0.37974763  0.76711479  0.15004962     1.36900
C2          C  0.35269813  0.73495748  0.15343701     0.77600
O3          O  0.37968371  0.77141897  0.18899744    -0.60900
O4          O  0.36571418  0.79565991  0.16830325    -0.51800
C5          C  0.42170161  0.76613717  0.15434424     0.70200
O6          O  0.41033146  0.74973822  0.15530352    -0.46600
C7          C  0.37562878  0.77580019  0.10422398     0.74900
O8          O  0.37240385  0.73282690  0.15627292    -0.58500
O9          O  0.37001797  0.78867280  0.11997675    -0.48600
O10         O  0.34677950  0.75371825  0.14966256    -0.54900
C11         C  0.37051355  0.78912372  0.18859338     0.85100
O12         O  0.41153956  0.78305553  0.15077821    -0.56800
O13         O  0.38362421  0.75893736  0.11205711    -0.60100
In14       In  0.30381370  0.85136751  0.38504508     1.36900
C15         C  0.27234449  0.82466161  0.37691326     0.77600
O16         O  0.30914345  0.85307038  0.34636286    -0.60900
O17         O  0.33288277  0.83809528  0.36687009    -0.51800
C18         C  0.30346675  0.89314614  0.38440058     0.70200
O19         O  0.28693809  0.88219530  0.38162794    -0.46600
C20         C  0.31014592  0.84612921  0.43106919     0.74900
O21         O  0.26997730  0.84445505  0.37579424    -0.58500
O22         O  0.32334964  0.83989523  0.41586260    -0.48600
O23         O  0.29069694  0.81863608  0.38259041    -0.54900
C24         C  0.32653871  0.84326811  0.34660246     0.85100
O25         O  0.32029292  0.88262098  0.38728686    -0.56800
O26         O  0.29381801  0.85456011  0.42247233    -0.60100
In27       In  0.21477711  0.58915795  0.14590813     1.36900
C28         C  0.20550696  0.59202230  0.10042622     0.77600
O29         O  0.22713831  0.62198718  0.14393406    -0.60900
O30         O  0.24917599  0.59718260  0.15077586    -0.51800
C31         C  0.19519892  0.60202966  0.18445031     0.70200
O32         O  0.18754441  0.60523584  0.16426314    -0.46600
C33         C  0.21463889  0.54739272  0.15153420     0.74900
O34         O  0.19197851  0.59588143  0.11622174    -0.58500
O35         O  0.23144574  0.55822671  0.15173620    -0.48600
O36         O  0.22345006  0.58662439  0.10806914    -0.54900
C37         C  0.24611568  0.61676835  0.14777327     0.85100
O38         O  0.21252718  0.59210195  0.18470196    -0.56800
O39         O  0.19790600  0.55802245  0.14866064    -0.60100
In40       In  0.13310311  0.68153672  0.37561280     1.36900
C41         C  0.13792639  0.67550417  0.42131833     0.77600
O42         O  0.16668838  0.69234891  0.37525833    -0.60900
O43         O  0.14274178  0.71457830  0.36586033    -0.51800
C44         C  0.14213960  0.65883109  0.33789203     0.70200
O45         O  0.14792806  0.65324409  0.35820600    -0.46600
C46         C  0.09110598  0.68427775  0.37612839     0.74900
O47         O  0.13904716  0.66037448  0.40687673    -0.58500
O48         O  0.10297647  0.69999136  0.37219464    -0.48600
O49         O  0.13484274  0.69339525  0.41215818    -0.54900
C50         C  0.16221825  0.71106747  0.36934523     0.85100
O51         O  0.13098680  0.67536790  0.33714257    -0.56800
O52         O  0.10079749  0.66704722  0.37942402    -0.60100
In53       In  0.39291119  0.76762992  0.88440729     1.36900
C54         C  0.38721622  0.77827539  0.92921393     0.77600
O55         O  0.35962727  0.75562863  0.88339436    -0.60900
O56         O  0.38480062  0.73308723  0.88341566    -0.51800
C57         C  0.38283377  0.78663343  0.84399851     0.70200
O58         O  0.38423468  0.79659972  0.86315651    -0.46600
C59         C  0.43504382  0.76651300  0.88088072     0.74900
O60         O  0.38083432  0.78989597  0.91255423    -0.58500
O61         O  0.42359371  0.75038684  0.87780916    -0.48600
O62         O  0.39630732  0.76151432  0.92279294    -0.54900
C63         C  0.36504295  0.73641165  0.88280207     0.85100
O64         O  0.38702826  0.76725178  0.84586718    -0.56800
O65         O  0.42481785  0.78318487  0.88524210    -0.60100
In66       In  0.30375689  0.85408369  0.65197470     1.36900
C67         C  0.31503689  0.85337550  0.60686097     0.77600
O68         O  0.29194525  0.82128610  0.64497327    -0.60900
O69         O  0.26945435  0.84472519  0.65467156    -0.51800
C70         C  0.32346398  0.84116733  0.69087118     0.70200
O71         O  0.33301723  0.84316753  0.67150289    -0.46600
C72         C  0.30088101  0.89565757  0.65857480     0.74900
O73         O  0.32650234  0.84538594  0.62276645    -0.58500
O74         O  0.28502434  0.88351878  0.65948451    -0.48600
O75         O  0.29825964  0.86187919  0.61428464    -0.54900
C76         C  0.27277591  0.82572557  0.64893056     0.85100
O77         O  0.30409506  0.84597838  0.69021145    -0.56800
O78         O  0.31831385  0.88636984  0.65518243    -0.60100
In79       In  0.21771838  0.59878673  0.88101385     1.36900
C80         C  0.25005177  0.62577832  0.87970629     0.77600
O81         O  0.21606169  0.59775464  0.84193493    -0.60900
O82         O  0.19190574  0.61473187  0.86011287    -0.51800
C83         C  0.21564043  0.55671770  0.87917825     0.70200
O84         O  0.23260106  0.56686490  0.87547832    -0.46600
C85         C  0.20790501  0.60450838  0.92588364     0.74900
O86         O  0.25263003  0.60604407  0.88195994    -0.58500
O87         O  0.19502492  0.60904405  0.90961259    -0.48600
O88         O  0.23098357  0.63129004  0.87733720    -0.54900
C89         C  0.19953881  0.60896322  0.84060756     0.85100
O90         O  0.19971037  0.56822511  0.88331977    -0.56800
O91         O  0.22537505  0.59718400  0.91896910    -0.60100
In92       In  0.13647204  0.67740059  0.64315930     1.36900
C93         C  0.16400103  0.70906116  0.64537904     0.77600
O94         O  0.13953271  0.67449574  0.68194666    -0.60900
O95         O  0.15092802  0.64887499  0.66154751    -0.51800
C96         C  0.09438898  0.67756792  0.64768814     0.70200
O97         O  0.10550072  0.69410541  0.64920180    -0.46600
C98         C  0.14028608  0.67093422  0.59723063     0.74900
O99         O  0.14456138  0.71133067  0.65010682    -0.58500
O100        O  0.14456006  0.65659400  0.61205576    -0.48600
O101        O  0.16932281  0.69041639  0.64011357    -0.54900
C102        C  0.14813859  0.65651141  0.68181377     0.85100
O103        O  0.10490002  0.66094399  0.64379851    -0.56800
O104        O  0.13348861  0.68790479  0.60599047    -0.60100
In105      In  0.80531376  0.59510949  0.14576773     1.36900
C106        C  0.77182834  0.62031696  0.14589559     0.77600
O107        O  0.80653692  0.59729383  0.18494891    -0.60900
O108        O  0.82922051  0.61501686  0.16578607    -0.51800
C109        C  0.80624250  0.55340375  0.15105318     0.70200
O110        O  0.78921233  0.56372022  0.14888006    -0.46600
C111        C  0.81588462  0.59533663  0.10012675     0.74900
O112        O  0.77087097  0.60111661  0.15201756    -0.58500
O113        O  0.82922359  0.59974844  0.11599478    -0.48600
O114        O  0.78998722  0.62649616  0.13955799    -0.54900
C115        C  0.82164123  0.61030178  0.18572322     0.85100
O116        O  0.82281211  0.56461257  0.15117396    -0.56800
O117        O  0.79759241  0.59139177  0.10783271    -0.60100
In118      In  0.88867901  0.68629771  0.38038097     1.36900
C119        C  0.86032235  0.71742095  0.37929046     0.77600
O120        O  0.88897927  0.68239227  0.34131474    -0.60900
O121        O  0.87071275  0.66061378  0.36095008    -0.51800
C122        C  0.93095808  0.68874893  0.37835180     0.70200
O123        O  0.91907465  0.70460250  0.37517780    -0.46600
C124        C  0.88587808  0.67524428  0.42533297     0.74900
O125        O  0.87955764  0.72027796  0.37393771    -0.58500
O126        O  0.88419921  0.66182277  0.40900321    -0.48600
O127        O  0.85588581  0.69872059  0.38523556    -0.54900
C128        C  0.87613449  0.66716224  0.34086924     0.85100
O129        O  0.92103894  0.67178614  0.38238667    -0.56800
O130        O  0.88869563  0.69402130  0.41845058    -0.60100
In131      In  0.62286000  0.75432383  0.15647672     1.36900
C132        C  0.62546151  0.76435252  0.11112843     0.77600
O133        O  0.65527799  0.74157580  0.15033560    -0.60900
O134        O  0.63139150  0.71993394  0.16142337    -0.51800
C135        C  0.63552964  0.77549021  0.19457168     0.70200
O136        O  0.63514195  0.78365894  0.17434348    -0.46600
C137        C  0.58089119  0.75455265  0.16102434     0.74900
O138        O  0.63169767  0.77663841  0.12714622    -0.58500
O139        O  0.59167709  0.73782560  0.16322517    -0.48600
O140        O  0.61784124  0.74713084  0.11850526    -0.54900
C141        C  0.65039884  0.72268107  0.15504538     0.85100
O142        O  0.62948843  0.75648711  0.19512617    -0.56800
O143        O  0.59168006  0.77092661  0.15703342    -0.60100
In144      In  0.70963053  0.85170448  0.38439658     1.36900
C145        C  0.69938736  0.84895056  0.42984436     0.77600
O146        O  0.72405564  0.81943768  0.38923876    -0.60900
O147        O  0.74429015  0.84498872  0.38005447    -0.51800
C148        C  0.69029359  0.83953453  0.34489638     0.70200
O149        O  0.68034307  0.84127985  0.36405221    -0.46600
C150        C  0.71212263  0.89360166  0.38054031     0.74900
O151        O  0.68805748  0.84053288  0.41412152    -0.58500
O152        O  0.72778436  0.88148030  0.37784682    -0.48600
O153        O  0.71560336  0.85827148  0.42215175    -0.54900
C154        C  0.74267672  0.82551298  0.38459167     0.85100
O155        O  0.70953783  0.84460097  0.34596554    -0.56800
O156        O  0.69476496  0.88415498  0.38399674    -0.60100
In157      In  0.63680932  0.76934305  0.88858244     1.36900
C158        C  0.66321608  0.73690960  0.88431553     0.77600
O159        O  0.63752562  0.77566660  0.84993073    -0.60900
O160        O  0.65471423  0.79668305  0.87184740    -0.51800
C161        C  0.59501021  0.77024922  0.88419783     0.70200
O162        O  0.60592819  0.75385088  0.88041803    -0.46600
C163        C  0.63825581  0.77361334  0.93522065     0.74900
O164        O  0.64347469  0.73519537  0.88130787    -0.58500
O165        O  0.64438472  0.78818559  0.92146899    -0.48600
O166        O  0.66936747  0.75534240  0.88921551    -0.54900
C167        C  0.64963201  0.79146884  0.85118471     0.85100
O168        O  0.60564554  0.78647934  0.88954755    -0.56800
O169        O  0.63148686  0.75740938  0.92491407    -0.60100
In170      In  0.72296354  0.84563104  0.65107943     1.36900
C171        C  0.75238224  0.81592574  0.65257868     0.77600
O172        O  0.72334682  0.84336652  0.69015891    -0.60900
O173        O  0.69491467  0.83453504  0.67295925    -0.51800
C174        C  0.72371742  0.88737396  0.65493208     0.70200
O175        O  0.74026469  0.87616989  0.65665449    -0.46600
C176        C  0.71378056  0.84372389  0.60524506     0.74900
O177        O  0.75685981  0.83537787  0.65411878    -0.58500
O178        O  0.70107690  0.83726851  0.62097567    -0.48600
O179        O  0.73292579  0.81186638  0.65006836    -0.54900
C180        C  0.70458152  0.83679093  0.69228342     0.85100
O181        O  0.70684444  0.87707819  0.65165726    -0.56800
O182        O  0.73104296  0.85073938  0.61314864    -0.60100
In183      In  0.80159525  0.59216379  0.87890992     1.36900
C184        C  0.81210570  0.59809223  0.92386149     0.77600
O185        O  0.78826572  0.62472184  0.87713674    -0.60900
O186        O  0.76678558  0.59891236  0.87520963    -0.51800
C187        C  0.82126569  0.60096257  0.83840888     0.70200
O188        O  0.82686117  0.60894498  0.85772579    -0.46600
C189        C  0.80091756  0.55036854  0.87755400     0.74900
O190        O  0.82546980  0.59998068  0.90741474    -0.58500
O191        O  0.78466171  0.56146688  0.87354872    -0.48600
O192        O  0.79374282  0.59315670  0.91714850    -0.54900
C193        C  0.76927377  0.61872813  0.87549309     0.85100
O194        O  0.80598490  0.58827399  0.84018287    -0.56800
O195        O  0.81742885  0.56067261  0.88259410    -0.60100
In196      In  0.89295791  0.67155306  0.64536248     1.36900
C197        C  0.88751301  0.66335657  0.60000662     0.77600
O198        O  0.85921469  0.68267118  0.64439665    -0.60900
O199        O  0.88307589  0.70501463  0.65251088    -0.51800
C200        C  0.88308579  0.65158879  0.68499336     0.70200
O201        O  0.87907881  0.64364487  0.66514908    -0.46600
C202        C  0.93483741  0.67484127  0.64884721     0.74900
O203        O  0.88520904  0.64914461  0.61550032    -0.58500
O204        O  0.92258066  0.69058188  0.65009057    -0.48600
O205        O  0.89357745  0.68098447  0.60778412    -0.54900
C206        C  0.86355784  0.70155958  0.64953362     0.85100
O207        O  0.89316089  0.66874129  0.68420312    -0.56800
O208        O  0.92562560  0.65740911  0.64519590    -0.60100
In209      In  0.30199953  0.09402061  0.38011880     1.36900
C210        C  0.31234434  0.09682991  0.42532365     0.77600
O211        O  0.28740570  0.12600082  0.38303789    -0.60900
O212        O  0.26703905  0.09958411  0.37766762    -0.51800
C213        C  0.31979858  0.10474934  0.33926120     0.70200
O214        O  0.32777918  0.11006805  0.35872128    -0.46600
C215        C  0.30264517  0.05223389  0.37856863     0.74900
O216        O  0.32513467  0.10237554  0.40928030    -0.58500
O217        O  0.28628959  0.06297012  0.37399312    -0.48600
O218        O  0.29458399  0.09061029  0.41800959    -0.54900
C219        C  0.26868417  0.11925279  0.38085884     0.85100
O220        O  0.30307239  0.09401149  0.34095883    -0.56800
O221        O  0.31897358  0.06305047  0.38293141    -0.60100
In222      In  0.38888782  0.17257038  0.14341616     1.36900
C223        C  0.38684982  0.16425187  0.09746884     0.77600
O224        O  0.35603915  0.18574559  0.14135690    -0.60900
O225        O  0.38089538  0.20684699  0.15035128    -0.51800
C226        C  0.37573000  0.15196070  0.18162351     0.70200
O227        O  0.37098170  0.14593908  0.16116374    -0.46600
C228        C  0.43105539  0.17154299  0.14722803     0.74900
O229        O  0.38293327  0.15034917  0.11289579    -0.58500
O230        O  0.42050070  0.18849155  0.14885758    -0.48600
O231        O  0.39138501  0.18216100  0.10572117    -0.54900
C232        C  0.36127983  0.20436094  0.14670341     0.85100
O233        O  0.38771913  0.16789771  0.18232366    -0.56800
O234        O  0.41992451  0.15517618  0.14434748    -0.60100
In235      In  0.12906741  0.26309794  0.38701745     1.36900
C236        C  0.15582320  0.23079085  0.38633391     0.77600
O237        O  0.12954382  0.26367197  0.34772294    -0.60900
O238        O  0.14448039  0.28902105  0.36535347    -0.51800
C239        C  0.08713605  0.26372328  0.38562100     0.70200
O240        O  0.09772127  0.24677180  0.38477861    -0.46600
C241        C  0.13259934  0.27413566  0.43179624     0.74900
O242        O  0.13636044  0.22866332  0.38180000    -0.58500
O243        O  0.13954041  0.28582261  0.41541802    -0.48600
O244        O  0.16134480  0.24934975  0.39152173    -0.64500
C245        C  0.14019462  0.28044993  0.34590758     0.85100
O246        O  0.09812069  0.28041118  0.38652111    -0.56800
O247        O  0.12413213  0.25713473  0.42515617    -0.60100
In248      In  0.21727386  0.34609169  0.15102977     1.36900
C249        C  0.24879594  0.31806834  0.15317680     0.77600
O250        O  0.21363806  0.34653137  0.18993902    -0.60900
O251        O  0.19118981  0.32877988  0.17073915    -0.51800
C252        C  0.21850326  0.38791938  0.15611139     0.70200
O253        O  0.23476891  0.37635177  0.15788505    -0.46600
C254        C  0.20761395  0.34477239  0.10529338     0.74900
O255        O  0.25174448  0.33771989  0.15546833    -0.58500
O256        O  0.19405846  0.34063566  0.12105397    -0.48600
O257        O  0.22975447  0.31290104  0.14970102    -0.54900
C258        C  0.19787398  0.33434650  0.19070716     0.85100
O259        O  0.20156766  0.37796689  0.15193124    -0.56800
O260        O  0.22574855  0.34919230  0.11310345    -0.60100
In261      In  0.38678375  0.18250963  0.87669130     1.36900
C262        C  0.35966349  0.21470070  0.87483773     0.77600
O263        O  0.38581374  0.17999240  0.83752315    -0.60900
O264        O  0.37074129  0.15581257  0.85727689    -0.51800
C265        C  0.42873224  0.18490665  0.87363472     0.70200
O266        O  0.41679288  0.20048565  0.86954806    -0.46600
C267        C  0.38252029  0.17117586  0.92184808     0.74900
O268        O  0.37942477  0.21730430  0.87655804    -0.58500
O269        O  0.37971719  0.15821954  0.90529019    -0.48600
O270        O  0.35396594  0.19560568  0.87413102    -0.54900
C271        C  0.37480364  0.16335778  0.83720620     0.85100
O272        O  0.41915296  0.16784970  0.87817800    -0.56800
O273        O  0.38737394  0.18952314  0.91509060    -0.60100
In274      In  0.29412166  0.09700484  0.64638320     1.36900
C275        C  0.26097705  0.12281882  0.65208675     0.77600
O276        O  0.29920611  0.09684030  0.68521420    -0.60900
O277        O  0.32019200  0.11521876  0.66423840    -0.51800
C278        C  0.29615037  0.05508927  0.65143250     0.70200
O279        O  0.27884514  0.06515372  0.65145214    -0.46600
C280        C  0.30401776  0.10113575  0.60074278     0.74900
O281        O  0.25920493  0.10291788  0.65258807    -0.58500
O282        O  0.31676132  0.10586953  0.61695120    -0.48600
O283        O  0.27953279  0.12927297  0.64816586    -0.54900
C284        C  0.31471671  0.10938754  0.68458862     0.85100
O285        O  0.31236281  0.06653069  0.64869407    -0.56800
O286        O  0.28638710  0.09439232  0.60801998    -0.60100
In287      In  0.21471800  0.35416028  0.88383083     1.36900
C288        C  0.20711013  0.34707836  0.92921967     0.77600
O289        O  0.22896685  0.32173720  0.88042951    -0.60900
O290        O  0.24964488  0.34810157  0.87837513    -0.51800
C291        C  0.19164249  0.34468225  0.84600101     0.70200
O292        O  0.18586300  0.33975049  0.86651488    -0.46600
C293        C  0.21397275  0.39647579  0.88274604     0.74900
O294        O  0.19347860  0.34332657  0.91356352    -0.58500
O295        O  0.22999572  0.38576493  0.87685282    -0.48600
O296        O  0.22436814  0.35439880  0.92156351    -0.54900
C297        C  0.24774164  0.32822458  0.87796516     0.85100
O298        O  0.20898982  0.35452861  0.84507517    -0.56800
O299        O  0.19827539  0.38547609  0.88901038    -0.60100
In300      In  0.12697191  0.27024142  0.65392515     1.36900
C301        C  0.13296424  0.27583893  0.60779241     0.77600
O302        O  0.15857237  0.25382504  0.65684069    -0.60900
O303        O  0.13085128  0.23567013  0.66243974    -0.51800
C304        C  0.13630905  0.29378454  0.69122896     0.70200
O305        O  0.14200438  0.29895590  0.67074259    -0.46600
C306        C  0.08502957  0.27169736  0.65406460     0.74900
O307        O  0.14031134  0.28853568  0.62283444    -0.58500
O308        O  0.09545851  0.25584462  0.66098921    -0.48600
O309        O  0.12280982  0.26058687  0.61655987    -0.54900
C310        C  0.15079874  0.23592605  0.66158557     0.85100
O311        O  0.12546877  0.27711020  0.69230136    -0.56800
O312        O  0.09617830  0.28737131  0.64795718    -0.60100
In313      In  0.80346399  0.35262596  0.13884011     1.36900
C314        C  0.81590265  0.35054218  0.09437944     0.77600
O315        O  0.79114753  0.31940237  0.13579743    -0.60900
O316        O  0.76887136  0.34396315  0.14162824    -0.51800
C317        C  0.82126018  0.34091587  0.17888656     0.70200
O318        O  0.82945319  0.33658230  0.15921597    -0.46600
C319        C  0.80307233  0.39423090  0.14475156     0.74900
O320        O  0.82804892  0.34531487  0.11103043    -0.58500
O321        O  0.78630995  0.38352934  0.14232422    -0.48600
O322        O  0.79805000  0.35744210  0.10065788    -0.54900
C323        C  0.77197865  0.32440732  0.13864508     0.85100
O324        O  0.80431933  0.35143677  0.17775326    -0.56800
O325        O  0.82002185  0.38362983  0.14420065    -0.60100
In326      In  0.88585918  0.27103922  0.37504265     1.36900
C327        C  0.87563074  0.28217591  0.41858448     0.77600
O328        O  0.85392168  0.25640044  0.37021772    -0.60900
O329        O  0.88087690  0.23631858  0.36885349    -0.51800
C330        C  0.87769153  0.29083583  0.33475816     0.70200
O331        O  0.86805057  0.29514753  0.35353534    -0.46600
C332        C  0.92765459  0.26819111  0.37924529     0.74900
O333        O  0.87741628  0.29568077  0.40232330    -0.58500
O334        O  0.91603530  0.25246181  0.37489016    -0.48600
O335        O  0.87925019  0.26341556  0.41240618    -0.54900
C336        C  0.86096396  0.23787033  0.36787307     0.85100
O337        O  0.89250894  0.27766856  0.33717745    -0.56800
O338        O  0.91786748  0.28554233  0.38124871    -0.60100
In339      In  0.63339835  0.17833836  0.14228900     1.36900
C340        C  0.65957643  0.21117460  0.14279891     0.77600
O341        O  0.63150255  0.17377299  0.18114035    -0.60900
O342        O  0.65207606  0.15350713  0.16266210    -0.51800
C343        C  0.59136508  0.17631704  0.14428524     0.70200
O344        O  0.60156436  0.19292352  0.14932232    -0.46600
C345        C  0.63602904  0.17096976  0.09649501     0.74900
O346        O  0.63985150  0.21318780  0.14610742    -0.58500
O347        O  0.64053248  0.15673876  0.11143650    -0.48600
O348        O  0.66579482  0.19233491  0.14037173    -0.54900
C349        C  0.64502584  0.15913476  0.18246926     0.85100
O350        O  0.60283192  0.16076195  0.13855953    -0.56800
O351        O  0.63081395  0.18850395  0.10520297    -0.60100
In352      In  0.72087415  0.09442755  0.37838241     1.36900
C353        C  0.75081530  0.12362862  0.37494766     0.77600
O354        O  0.71982395  0.09649586  0.33923037    -0.60900
O355        O  0.69279854  0.10733965  0.35805937    -0.51800
C356        C  0.72214795  0.05261188  0.37668495     0.70200
O357        O  0.73858756  0.06383815  0.37436765    -0.46600
C358        C  0.71302945  0.09660546  0.42443882     0.74900
O359        O  0.75467833  0.10407044  0.37319161    -0.58500
O360        O  0.69927851  0.10199695  0.40936020    -0.48600
O361        O  0.73165740  0.12804058  0.37909692    -0.54900
C362        C  0.70180284  0.10510587  0.33833293     0.85100
O363        O  0.70504639  0.06289231  0.37840067    -0.56800
O364        O  0.73034928  0.09058770  0.41571093    -0.60100
In365      In  0.80810439  0.34986498  0.87436583     1.36900
C366        C  0.77653405  0.32236151  0.87253598     0.77600
O367        O  0.81098090  0.34878734  0.83543231    -0.60900
O368        O  0.83569709  0.33480832  0.85528176    -0.51800
C369        C  0.80581301  0.39154131  0.87045445     0.70200
O370        O  0.79035681  0.37954328  0.86610788    -0.46600
C371        C  0.81813897  0.34875960  0.91978612     0.74900
O372        O  0.77361166  0.34209480  0.87138015    -0.58500
O373        O  0.83178694  0.34565389  0.90388119    -0.48600
O374        O  0.79561781  0.31674778  0.87510158    -0.54900
C375        C  0.82825867  0.33882824  0.83516227     0.85100
O376        O  0.82268338  0.38206602  0.87595873    -0.56800
O377        O  0.79954521  0.35128653  0.91225179    -0.60100
In378      In  0.88407078  0.26642670  0.63687049     1.36900
C379        C  0.85923968  0.23291575  0.64077119     0.77600
O380        O  0.88660512  0.26976649  0.67567263    -0.60900
O381        O  0.86616085  0.29103190  0.65759099    -0.51800
C382        C  0.92600520  0.26811477  0.63892618     0.70200
O383        O  0.91575847  0.25102268  0.64059421    -0.46600
C384        C  0.87807310  0.27649362  0.59204951     0.74900
O385        O  0.87920085  0.23148666  0.64127718    -0.58500
O386        O  0.87575918  0.28993083  0.60823952    -0.48600
O387        O  0.85212230  0.25145958  0.63845579    -0.54900
C388        C  0.87372455  0.28493208  0.67699514     0.85100
O389        O  0.91476498  0.28435388  0.63548387    -0.56800
O390        O  0.88305928  0.25824894  0.59904545    -0.60100
In391      In  0.63082460  0.18342613  0.87411308     1.36900
C392        C  0.66071088  0.21278520  0.86947895     0.77600
O393        O  0.63043598  0.19461862  0.91124803    -0.60900
O394        O  0.63777862  0.16234346  0.90520115    -0.51800
C395        C  0.58862215  0.18565738  0.87267866     0.70200
O396        O  0.60041379  0.20074028  0.86612413    -0.46600
C397        C  0.64141596  0.16028474  0.83688820     0.74900
O398        O  0.64118339  0.21729708  0.86875854    -0.58500
O399        O  0.64615050  0.15479467  0.85755694    -0.48600
O400        O  0.66454767  0.19337270  0.87192672    -0.54900
C401        C  0.63524782  0.17695486  0.92006856     0.85100
O402        O  0.59856101  0.16933220  0.87921838    -0.56800
O403        O  0.63025572  0.17680443  0.83543407    -0.60100
In404      In  0.72010665  0.08869075  0.64746045     1.36900
C405        C  0.71125901  0.08879200  0.60136088     0.77600
O406        O  0.73265264  0.12165340  0.64388763    -0.60900
O407        O  0.75395705  0.09729874  0.65444103    -0.51800
C408        C  0.69932337  0.10152617  0.68561038     0.70200
O409        O  0.69156307  0.10335312  0.66523235    -0.46600
C410        C  0.72108069  0.04699218  0.65364237     0.74900
O411        O  0.69791837  0.09461735  0.61662813    -0.58500
O412        O  0.73768958  0.05796999  0.65162020    -0.48600
O413        O  0.72885408  0.08329278  0.60981631    -0.54900
C414        C  0.75127625  0.11666243  0.64978413     0.85100
O415        O  0.71742691  0.09307773  0.68620423    -0.56800
O416        O  0.70412409  0.05757095  0.65348615    -0.60100
C417        C  0.64919236  0.14906668  0.81581997     0.01300
C418        C  0.67078282  0.15043790  0.80947481     0.04200
C419        C  0.67783612  0.14183978  0.78806023    -0.11900
C420        C  0.66338053  0.13173454  0.77293742     0.23500
C421        C  0.64196826  0.12969909  0.77967012    -0.12500
C422        C  0.63490025  0.13840550  0.80102791     0.04900
C423        C  0.67083851  0.12336737  0.74997007     0.27300
C424        C  0.67063220  0.13642865  0.72987296    -0.13200
C425        C  0.67955289  0.12922717  0.70863732     0.05400
C426        C  0.68840586  0.10870654  0.70728262    -0.09100
C427        C  0.68791012  0.09540649  0.72729089     0.06200
C428        C  0.67917260  0.10274376  0.74852191    -0.13500
Br429      Br  0.62237785  0.11504865  0.75951752    -0.05600
Br430      Br  0.69058128  0.16490914  0.82961168     0.00100
Br431      Br  0.68116635  0.14826406  0.68214588     0.00500
Br432      Br  0.67876230  0.08469296  0.77589265    -0.03900
Br433      Br  0.60574959  0.13529902  0.81037380     0.00600
Br434      Br  0.70727168  0.14416866  0.77909917    -0.03200
Br435      Br  0.65845294  0.16440559  0.73173975    -0.04100
Br436      Br  0.69882048  0.06687596  0.72569975    -0.00100
C437        C  0.84512677  0.21441610  0.64252900     0.01300
C438        C  0.84687713  0.20024798  0.66161178     0.04200
C439        C  0.83235987  0.18345645  0.66397542    -0.11900
C440        C  0.81624237  0.18071420  0.64716968     0.23500
C441        C  0.81488464  0.19451088  0.62776935    -0.12500
C442        C  0.82930172  0.21132376  0.62542756     0.04900
C443        C  0.80052341  0.16344560  0.64975768     0.27300
C444        C  0.80341058  0.14431434  0.63756442    -0.13200
C445        C  0.78747215  0.12876255  0.63799768     0.05400
C446        C  0.76862129  0.13228302  0.65075095    -0.09100
C447        C  0.76609447  0.15113481  0.66367564     0.06200
C448        C  0.78200397  0.16672567  0.66309934    -0.13500
Br449      Br  0.79312800  0.19033538  0.60444467    -0.05600
Br450      Br  0.86847915  0.20437940  0.68512036     0.00100
Br451      Br  0.79090013  0.10334805  0.61967992     0.00500
Br452      Br  0.77830502  0.19286125  0.68008460    -0.03900
Br453      Br  0.82791242  0.22953526  0.59816959     0.00600
Br454      Br  0.83422811  0.16438184  0.69038256    -0.03200
Br455      Br  0.82894504  0.13987242  0.61956444    -0.04100
Br456      Br  0.74115905  0.15541863  0.68274992    -0.00100
C457        C  0.75903374  0.30697417  0.87069324     0.01300
C458        C  0.74089605  0.30890923  0.88507509     0.04200
C459        C  0.72455255  0.29381943  0.88362379    -0.11900
C460        C  0.72633967  0.27673758  0.86793578     0.23500
C461        C  0.74420207  0.27504028  0.85322560    -0.12500
C462        C  0.76045100  0.29022003  0.85445178     0.04900
C463        C  0.70980772  0.26009005  0.86760608     0.27300
C464        C  0.71207132  0.24211744  0.88199158    -0.13200
C465        C  0.69619005  0.22652446  0.88241059     0.05400
C466        C  0.67784980  0.22882156  0.86825847    -0.09100
C467        C  0.67609739  0.24651061  0.85310582     0.06200
C468        C  0.69194252  0.26220999  0.85302800    -0.13500
Br469      Br  0.74637479  0.25174912  0.83154686    -0.05600
Br470      Br  0.73879191  0.33154025  0.90763871     0.00100
Br471      Br  0.69981785  0.20249889  0.90312932     0.00500
Br472      Br  0.68939546  0.28670586  0.83291977    -0.03900
Br473      Br  0.78406923  0.28863831  0.83292489     0.00600
Br474      Br  0.69977738  0.29620799  0.90336591    -0.03200
Br475      Br  0.73706816  0.23903352  0.90128040    -0.04100
Br476      Br  0.65297166  0.24865556  0.83106548    -0.00100
C477        C  0.83826368  0.33198263  0.81284537     0.01300
C478        C  0.84654046  0.31127635  0.81051002     0.04200
C479        C  0.85340118  0.30399846  0.78841529    -0.11900
C480        C  0.85191363  0.31723992  0.76855963     0.23500
C481        C  0.84448168  0.33810987  0.77097069    -0.12500
C482        C  0.83780519  0.34554071  0.79302015     0.04900
C483        C  0.85753847  0.30909797  0.74494414     0.27300
C484        C  0.87855422  0.31055230  0.73670199    -0.13200
C485        C  0.88376715  0.30302894  0.71420894     0.05400
C486        C  0.86789890  0.29434517  0.69973694    -0.09100
C487        C  0.84681417  0.29313798  0.70785782     0.06200
C488        C  0.84168747  0.30032577  0.73051812    -0.13500
Br489      Br  0.84311978  0.35633214  0.74374040    -0.05600
Br490      Br  0.84718177  0.29212192  0.83696884     0.00100
Br491      Br  0.91257508  0.30511926  0.70293390     0.00500
Br492      Br  0.81304590  0.29774808  0.74213351    -0.03900
Br493      Br  0.82861542  0.37459231  0.79585928     0.00600
Br494      Br  0.86428044  0.27561924  0.78502696    -0.03200
Br495      Br  0.90012657  0.32283913  0.75634751    -0.04100
Br496      Br  0.82516662  0.28062749  0.68842773    -0.00100
C497        C  0.70967011  0.09687149  0.45034531     0.01300
C498        C  0.72634173  0.10357242  0.46519101     0.04200
C499        C  0.72445667  0.10170817  0.48973049    -0.11900
C500        C  0.70611501  0.09280415  0.49982170     0.23500
C501        C  0.68932058  0.08634922  0.48519806    -0.12500
C502        C  0.69087746  0.08872835  0.46057369     0.04900
C503        C  0.70473499  0.09042255  0.52586488     0.27300
C504        C  0.71371436  0.07261967  0.53700455    -0.13200
C505        C  0.71484147  0.07160188  0.56170731     0.05400
C506        C  0.70716613  0.08855103  0.57556502    -0.09100
C507        C  0.69708125  0.10582959  0.56432095     0.06200
C508        C  0.69594399  0.10673489  0.53958904    -0.13500
Br509      Br  0.66452402  0.07352893  0.49905333    -0.05600
Br510      Br  0.75179307  0.11601205  0.45221992     0.00100
Br511      Br  0.72641046  0.04651117  0.57636153     0.00500
Br512      Br  0.68319652  0.13081207  0.52420379    -0.03900
Br513      Br  0.66748714  0.07990731  0.44113434     0.00600
Br514      Br  0.74720685  0.11119218  0.50974556    -0.03200
Br515      Br  0.72503579  0.04988830  0.51819301    -0.04100
Br516      Br  0.68604926  0.12911077  0.58241699    -0.00100
C517        C  0.63627677  0.16791701  0.07070619     0.01300
C518        C  0.65423814  0.15954091  0.05916545     0.04200
C519        C  0.65528776  0.15971981  0.03441664    -0.11900
C520        C  0.63822593  0.16778166  0.02115731     0.23500
C521        C  0.61996164  0.17529751  0.03262928    -0.12500
C522        C  0.61899749  0.17544559  0.05725775     0.04900
C523        C  0.63945354  0.16904581  0.99514111     0.27300
C524        C  0.64802700  0.18719091  0.98433785    -0.13200
C525        C  0.64720812  0.18952952  0.95978036     0.05400
C526        C  0.63744005  0.17380578  0.94580669    -0.09100
C527        C  0.62890401  0.15558291  0.95677094     0.06200
C528        C  0.63024200  0.15310101  0.98130422    -0.13500
Br529      Br  0.59640048  0.18592563  0.01441535    -0.05600
Br530      Br  0.67791889  0.14894619  0.07705778     0.00100
Br531      Br  0.65973047  0.21440802  0.94569481     0.00500
Br532      Br  0.61872030  0.12821742  0.99630095    -0.03900
Br533      Br  0.59358124  0.18565064  0.07240404     0.00600
Br534      Br  0.68035711  0.14974341  0.01850389    -0.03200
Br535      Br  0.66025676  0.20921879  0.00345541    -0.04100
Br536      Br  0.61333914  0.13495343  0.93877435    -0.00100
C537        C  0.65226149  0.15009197  0.20555601     0.01300
C538        C  0.66081028  0.12931347  0.20714650     0.04200
C539        C  0.66860064  0.12150679  0.22877164    -0.11900
C540        C  0.66717479  0.13383892  0.24924743     0.23500
C541        C  0.65818342  0.15419477  0.24799422    -0.12500
C542        C  0.65110828  0.16246378  0.22634936     0.04900
C543        C  0.67606760  0.12597523  0.27197295     0.27300
C544        C  0.66430844  0.11208768  0.28645051    -0.13200
C545        C  0.67262806  0.10524874  0.30819751     0.05400
C546        C  0.69257302  0.11256577  0.31581642    -0.09100
C547        C  0.70417043  0.12671432  0.30146521     0.06200
C548        C  0.69610204  0.13311387  0.27951622    -0.13500
Br549      Br  0.65615029  0.17099483  0.27620757    -0.05600
Br550      Br  0.66129429  0.11080427  0.18027088     0.00100
Br551      Br  0.65716449  0.08512013  0.32710029     0.00500
Br552      Br  0.71246197  0.15181513  0.25966150    -0.03900
Br553      Br  0.64117229  0.19145288  0.22587579     0.00600
Br554      Br  0.68193077  0.09402180  0.23042080    -0.03200
Br555      Br  0.63674789  0.10253555  0.27648314    -0.04100
Br556      Br  0.73058917  0.13849387  0.31242428    -0.00100
C557        C  0.87013648  0.28731630  0.44316343     0.01300
C558        C  0.88081405  0.30361083  0.45526849     0.04200
C559        C  0.87926316  0.30483422  0.47988779    -0.11900
C560        C  0.86707334  0.28987219  0.49237419     0.23500
C561        C  0.85471104  0.27505078  0.48010445    -0.12500
C562        C  0.85606910  0.27391260  0.45553021     0.04900
C563        C  0.86993191  0.28751593  0.51808373     0.27300
C564        C  0.88757944  0.27611542  0.52642806    -0.13200
C565        C  0.89051454  0.27316974  0.55062158     0.05400
C566        C  0.87560420  0.28136234  0.56676144    -0.09100
C567        C  0.85796553  0.29296367  0.55838050     0.06200
C568        C  0.85514130  0.29598463  0.53404144    -0.13500
Br569      Br  0.83714255  0.25526076  0.49714437    -0.05600
Br570      Br  0.89905445  0.32312059  0.43874593     0.00100
Br571      Br  0.91553919  0.25836969  0.56137314     0.00500
Br572      Br  0.83069667  0.31103453  0.52234044    -0.03900
Br573      Br  0.83864886  0.25381912  0.43883395     0.00600
Br574      Br  0.89519998  0.32583839  0.49690824    -0.03200
Br575      Br  0.90753122  0.26396977  0.50446884    -0.04100
Br576      Br  0.83689395  0.30360541  0.57990256    -0.00100
C577        C  0.76730685  0.14012207  0.37200521     0.01300
C578        C  0.76727891  0.15825778  0.38651644     0.04200
C579        C  0.78300404  0.17383098  0.38369950    -0.11900
C580        C  0.79874323  0.17149120  0.36637242     0.23500
C581        C  0.79862484  0.15373773  0.35158355    -0.12500
C582        C  0.78298949  0.13804943  0.35434898     0.04900
C583        C  0.81601564  0.18727753  0.36462484     0.27300
C584        C  0.81451524  0.20427834  0.34868353    -0.13200
C585        C  0.82995515  0.22032843  0.34883184     0.05400
C586        C  0.84677719  0.21950551  0.36512706    -0.09100
C587        C  0.84892229  0.20179035  0.38009432     0.06200
C588        C  0.83355254  0.18570030  0.37978170    -0.13500
Br589      Br  0.82008429  0.15102652  0.32759940    -0.05600
Br590      Br  0.74651312  0.16164710  0.41117856     0.00100
Br591      Br  0.82840347  0.24303305  0.32614496     0.00500
Br592      Br  0.83598731  0.16171427  0.40067773    -0.03900
Br593      Br  0.78283264  0.11433660  0.33303775     0.00600
Br594      Br  0.78336922  0.19833297  0.40390619    -0.03200
Br595      Br  0.79106470  0.20571272  0.32701979    -0.04100
Br596      Br  0.87201047  0.20003316  0.40222592    -0.00100
C597        C  0.82314992  0.34989534  0.94524901     0.01300
C598        C  0.83777585  0.33578635  0.95579330     0.04200
C599        C  0.84060860  0.33582039  0.98036328    -0.11900
C600        C  0.82851916  0.34952121  0.99450372     0.23500
C601        C  0.81490230  0.36440655  0.98396216    -0.12500
C602        C  0.81246049  0.36485344  0.95946451     0.04900
C603        C  0.82795505  0.34693532  0.02041889     0.27300
C604        C  0.81110037  0.33548516  0.03054788    -0.13200
C605        C  0.80755954  0.33634222  0.05484074     0.05400
C606        C  0.82134092  0.34801920  0.06933604    -0.09100
C607        C  0.83921355  0.35813045  0.05946326     0.06200
C608        C  0.84238585  0.35777248  0.03494327    -0.13500
Br609      Br  0.79892083  0.38373241  0.00341434    -0.05600
Br610      Br  0.85285900  0.31527521  0.93713874     0.00100
Br611      Br  0.78356646  0.32158117  0.06818965     0.00500
Br612      Br  0.86589951  0.37276063  0.02105306    -0.03900
Br613      Br  0.79488056  0.38664912  0.94570370     0.00600
Br614      Br  0.86054203  0.31673461  0.99491408    -0.03200
Br615      Br  0.79239844  0.31915255  0.01085978    -0.04100
Br616      Br  0.85837356  0.37379621  0.07920953    -0.00100
C617        C  0.67432155  0.22934121  0.14109897     0.01300
C618        C  0.67372660  0.24576333  0.15782548     0.04200
C619        C  0.68833937  0.26258918  0.15639240    -0.11900
C620        C  0.70396045  0.26276466  0.13868771     0.23500
C621        C  0.70438819  0.24656189  0.12180830    -0.12500
C622        C  0.68940725  0.23009828  0.12273393     0.04900
C623        C  0.72106937  0.27891669  0.13890608     0.27300
C624        C  0.71958650  0.29728431  0.12492990    -0.13200
C625        C  0.73625304  0.31214792  0.12477793     0.05400
C626        C  0.75458827  0.30860329  0.13848328    -0.09100
C627        C  0.75627590  0.28977841  0.15185249     0.06200
C628        C  0.73941195  0.27520647  0.15234275    -0.13500
Br629      Br  0.72603954  0.24665972  0.09782538    -0.05600
Br630      Br  0.65407199  0.24449063  0.18377789     0.00100
Br631      Br  0.73459425  0.33645598  0.10424985     0.00500
Br632      Br  0.74131788  0.24989337  0.17134578    -0.03900
Br633      Br  0.68922256  0.20910385  0.09814406     0.00600
Br634      Br  0.68747626  0.28516562  0.17905878    -0.03200
Br635      Br  0.69487680  0.30172325  0.10560582    -0.04100
Br636      Br  0.78151786  0.28365114  0.16971544    -0.00100
C637        C  0.83041911  0.33408992  0.20158453     0.01300
C638        C  0.81686746  0.32676912  0.21969762     0.04200
C639        C  0.82535419  0.32060592  0.24144592    -0.11900
C640        C  0.84733275  0.32176561  0.24533486     0.23500
C641        C  0.86090446  0.32910502  0.22745910    -0.12500
C642        C  0.85252291  0.33519854  0.20557055     0.04900
C643        C  0.85619774  0.31435798  0.26796794     0.27300
C644        C  0.85701809  0.32806322  0.28735415    -0.13200
C645        C  0.86455452  0.32064176  0.30913011     0.05400
C646        C  0.87128858  0.29938403  0.31156828    -0.09100
C647        C  0.87062733  0.28576554  0.29186956     0.06200
C648        C  0.86306414  0.29328329  0.27021019    -0.13500
Br649      Br  0.89100831  0.33080754  0.23322464    -0.05600
Br650      Br  0.78667318  0.32403534  0.21477119     0.00100
Br651      Br  0.86614601  0.33997980  0.33521332     0.00500
Br652      Br  0.86127302  0.27452096  0.24357979    -0.03900
Br653      Br  0.87145549  0.34591630  0.18167644     0.00600
Br654      Br  0.80692269  0.31018948  0.26598913    -0.03200
Br655      Br  0.84736262  0.35691438  0.28395313    -0.04100
Br656      Br  0.87856993  0.25627897  0.29439505    -0.00100
C657        C  0.94927824  0.26899478  0.64160399     0.01300
C658        C  0.95894289  0.25874200  0.66088572     0.04200
C659        C  0.98111373  0.25905501  0.66337210    -0.11900
C660        C  0.99371384  0.26962595  0.64665474     0.23500
C661        C  0.98413036  0.28016388  0.62760828    -0.12500
C662        C  0.96193062  0.28006153  0.62518927     0.04900
C663        C  0.01707871  0.26996856  0.64921033     0.27300
C664        C  0.02710561  0.28783896  0.65883938    -0.13200
C665        C  0.04936722  0.28873031  0.66009406     0.05400
C666        C  0.06165271  0.27137721  0.65238025    -0.09100
C667        C  0.05149173  0.25343801  0.64279030     0.06200
C668        C  0.02926854  0.25275792  0.64126788    -0.13500
Br669      Br  0.00162546  0.29457775  0.60475861    -0.05600
Br670      Br  0.94182152  0.24550503  0.68492510     0.00100
Br671      Br  0.06267672  0.31369586  0.67270403     0.00500
Br672      Br  0.01543939  0.22830678  0.62804630    -0.03900
Br673      Br  0.94915136  0.29472640  0.59903983     0.00600
Br674      Br  0.99433254  0.24524130  0.68983476    -0.03200
Br675      Br  0.01011492  0.31095971  0.67053880    -0.04100
Br676      Br  0.06789563  0.23031785  0.62994775    -0.00100
C677        C  0.17955516  0.33919891  0.82451115     0.01300
C678        C  0.17718272  0.35437982  0.80642366     0.04200
C679        C  0.16839046  0.34858970  0.78470235    -0.11900
C680        C  0.16216730  0.32752989  0.78071175     0.23500
C681        C  0.16331365  0.31260429  0.79913523    -0.12500
C682        C  0.17173988  0.31846065  0.82108761     0.04900
C683        C  0.15522352  0.32089514  0.75690251     0.27300
C684        C  0.13354689  0.31792955  0.75201421    -0.13200
C685        C  0.12721699  0.31000308  0.73005355     0.05400
C686        C  0.14250972  0.30541964  0.71265498    -0.09100
C687        C  0.16408719  0.30976700  0.71703847     0.06200
C688        C  0.17043638  0.31722502  0.73919769    -0.13500
Br689      Br  0.15399391  0.28388418  0.79393766    -0.05600
Br690      Br  0.18530298  0.38342117  0.81142585     0.00100
Br691      Br  0.09747612  0.30584904  0.72376122     0.00500
Br692      Br  0.20014579  0.32163255  0.74564404    -0.03900
Br693      Br  0.17347439  0.29757640  0.84581948     0.00600
Br694      Br  0.16505052  0.36942902  0.76013389    -0.03200
Br695      Br  0.11260310  0.32452684  0.77561402    -0.04100
Br696      Br  0.18525627  0.30421823  0.69333891    -0.00100
C697        C  0.24292999  0.13752508  0.65592585     0.01300
C698        C  0.22840397  0.13405536  0.67450647     0.04200
C699        C  0.21155782  0.14837431  0.67830950    -0.11900
C700        C  0.20919990  0.16620496  0.66365025     0.23500
C701        C  0.22371172  0.16976155  0.64528083    -0.12500
C702        C  0.24060207  0.15565231  0.64153746     0.04900
C703        C  0.19212328  0.18200659  0.66762977     0.27300
C704        C  0.17263273  0.18003522  0.65583550    -0.13200
C705        C  0.15863465  0.19739576  0.65455890     0.05400
C706        C  0.16404874  0.21679312  0.66536011    -0.09100
C707        C  0.18275059  0.21802763  0.67893343     0.06200
C708        C  0.19673487  0.20067898  0.68000950    -0.13500
Br709      Br  0.22042635  0.19434768  0.62531581    -0.05600
Br710      Br  0.23253356  0.11082656  0.69613757     0.00100
Br711      Br  0.13308304  0.19487420  0.63614274     0.00500
Br712      Br  0.22285039  0.20265199  0.69748892    -0.03900
Br713      Br  0.26029352  0.16148192  0.61640919     0.00600
Br714      Br  0.19199331  0.14400477  0.70390708    -0.03200
Br715      Br  0.16575906  0.15378922  0.64040980    -0.04100
Br716      Br  0.18929296  0.24331079  0.69638505    -0.00100
C717        C  0.45208434  0.18668718  0.87402984     0.01300
C718        C  0.46342425  0.17961659  0.89390705     0.04200
C719        C  0.48568581  0.18092058  0.89431987    -0.11900
C720        C  0.49670248  0.18968702  0.87509852     0.23500
C721        C  0.48537251  0.19740084  0.85557067    -0.12500
C722        C  0.46310608  0.19578965  0.85494334     0.04900
C723        C  0.52023444  0.18899045  0.87449626     0.27300
C724        C  0.53236627  0.20635236  0.88210182    -0.13200
C725        C  0.55471438  0.20546886  0.88120653     0.05400
C726        C  0.56505447  0.18697926  0.87302302    -0.09100
C727        C  0.55267439  0.16946499  0.86589123     0.06200
C728        C  0.53040731  0.17062803  0.86634119    -0.13500
Br729      Br  0.50056951  0.20956506  0.82941182    -0.05600
Br730      Br  0.44848123  0.16897555  0.92110237     0.00100
Br731      Br  0.57087399  0.22921844  0.89272051     0.00500
Br732      Br  0.51352736  0.14702527  0.85568445    -0.03900
Br733      Br  0.44793185  0.20480918  0.82728072     0.00600
Br734      Br  0.50123505  0.17024140  0.92098400    -0.03200
Br735      Br  0.51818631  0.23111616  0.89420509    -0.04100
Br736      Br  0.56578338  0.14378365  0.85489543    -0.00100
C737        C  0.34434436  0.23249567  0.87402024     0.01300
C738        C  0.32480732  0.23089037  0.88612673     0.04200
C739        C  0.31039914  0.24785165  0.88577253    -0.11900
C740        C  0.31502636  0.26630898  0.87287468     0.23500
C741        C  0.33442559  0.26804845  0.86076220    -0.12500
C742        C  0.34907766  0.25119231  0.86126843     0.04900
C743        C  0.29916330  0.28366846  0.87210936     0.27300
C744        C  0.28147435  0.28202349  0.85718286    -0.13200
C745        C  0.26467747  0.29661439  0.85902230     0.05400
C746        C  0.26595384  0.31357970  0.87507994    -0.09100
C747        C  0.28434114  0.31587687  0.88903629     0.06200
C748        C  0.30067341  0.30068814  0.88787707    -0.13500
Br749      Br  0.34084398  0.29362732  0.84356902    -0.05600
Br750      Br  0.31758942  0.20583251  0.90395412     0.00100
Br751      Br  0.24003697  0.29321534  0.83931141     0.00500
Br752      Br  0.32470694  0.30238296  0.90874792    -0.03900
Br753      Br  0.37492788  0.25348873  0.84316704     0.00600
Br754      Br  0.28435204  0.24612657  0.90354153    -0.03200
Br755      Br  0.28023476  0.25938345  0.83453706    -0.04100
Br756      Br  0.28677515  0.33887970  0.91103449    -0.00100
C757        C  0.32510493  0.11702620  0.70617941     0.01300
C758        C  0.32570082  0.13889434  0.71107085     0.04200
C759        C  0.33417140  0.14610201  0.73245505    -0.11900
C760        C  0.34232177  0.13152553  0.74891621     0.23500
C761        C  0.34193643  0.10969539  0.74391701    -0.12500
C762        C  0.33317775  0.10243649  0.72269719     0.04900
C763        C  0.35081564  0.13912265  0.77173048     0.27300
C764        C  0.37212444  0.14554958  0.77355588    -0.13200
C765        C  0.38019721  0.15261760  0.79519416     0.05400
C766        C  0.36676863  0.15408376  0.81500705    -0.09100
C767        C  0.34524106  0.14806259  0.81295149     0.06200
C768        C  0.33745418  0.14019356  0.79151342    -0.13500
Br769      Br  0.35321553  0.08977763  0.76637751    -0.05600
Br770      Br  0.31354169  0.15892428  0.68923604     0.00100
Br771      Br  0.40990867  0.15958835  0.79768267     0.00500
Br772      Br  0.30826930  0.13127647  0.78890076    -0.03900
Br773      Br  0.33254676  0.07248484  0.71609772     0.00600
Br774      Br  0.33402520  0.17591671  0.73964237    -0.03200
Br775      Br  0.39008330  0.14508061  0.74613333    -0.04100
Br776      Br  0.32573972  0.15232967  0.83865418    -0.00100
C777        C  0.20310593  0.34473183  0.07963011     0.01300
C778        C  0.21103484  0.36133893  0.06540297     0.04200
C779        C  0.20940020  0.36028566  0.04080598    -0.11900
C780        C  0.19966491  0.34276591  0.03009414     0.23500
C781        C  0.19080652  0.32664483  0.04416551    -0.12500
C782        C  0.19240241  0.32764458  0.06888069     0.04900
C783        C  0.19972457  0.34114614  0.00400472     0.27300
C784        C  0.18380764  0.35116111  0.99061282    -0.13200
C785        C  0.18564102  0.35233112  0.96596481     0.05400
C786        C  0.20345222  0.34345934  0.95460982    -0.09100
C787        C  0.21875636  0.33242826  0.96795322     0.06200
C788        C  0.21690656  0.33131539  0.99254710    -0.13500
Br789      Br  0.17713583  0.30290516  0.02932281    -0.05600
Br790      Br  0.22351210  0.38613348  0.07946658     0.00100
Br791      Br  0.16461376  0.36761804  0.94808327     0.00500
Br792      Br  0.23836468  0.31698973  0.01073907    -0.03900
Br793      Br  0.18089757  0.30495792  0.08767585     0.00600
Br794      Br  0.22098999  0.38267509  0.02151335    -0.03200
Br795      Br  0.16003262  0.36412833  0.00628072    -0.04100
Br796      Br  0.24220729  0.31853292  0.95252151    -0.00100
C797        C  0.95090746  0.26638581  0.38172450     0.01300
C798        C  0.96119470  0.27525789  0.40134169     0.04200
C799        C  0.98345629  0.27466945  0.40297176    -0.11900
C800        C  0.99544178  0.26429251  0.38557944     0.23500
C801        C  0.98509241  0.25430847  0.36673353    -0.12500
C802        C  0.96293053  0.25573144  0.36451041     0.04900
C803        C  0.01896393  0.26458563  0.38637785     0.27300
C804        C  0.03023354  0.27855540  0.37161995    -0.13200
C805        C  0.05252212  0.27806663  0.37109179     0.05400
C806        C  0.06369951  0.26399255  0.38586136    -0.09100
C807        C  0.05238244  0.25028209  0.40100639     0.06200
C808        C  0.03005903  0.25041034  0.40102374    -0.13500
Br809      Br  0.00147573  0.23885639  0.34383096    -0.05600
Br810      Br  0.94479520  0.28699022  0.42677008     0.00100
Br811      Br  0.06753440  0.29569008  0.34886082     0.00500
Br812      Br  0.01459458  0.23095904  0.42084329    -0.03900
Br813      Br  0.94936252  0.24416244  0.33705690     0.00600
Br814      Br  0.99758264  0.28835071  0.42882120    -0.03200
Br815      Br  0.01496869  0.29819132  0.35184006    -0.04100
Br816      Br  0.06727407  0.23188432  0.42255764    -0.00100
C817        C  0.13400273  0.27951101  0.45695848     0.01300
C818        C  0.15385358  0.28040912  0.46825341     0.04200
C819        C  0.15489133  0.28269422  0.49283436    -0.11900
C820        C  0.13610241  0.28325253  0.50627415     0.23500
C821        C  0.11627272  0.28285309  0.49488939    -0.12500
C822        C  0.11524154  0.28128346  0.47028883     0.04900
C823        C  0.13706201  0.28188354  0.53235081     0.27300
C824        C  0.13874834  0.26190350  0.54318114    -0.13200
C825        C  0.13860712  0.26013459  0.56780122     0.05400
C826        C  0.13569629  0.27830739  0.58193526    -0.09100
C827        C  0.13419302  0.29841535  0.57097163     0.06200
C828        C  0.13537410  0.30017762  0.54628460    -0.13500
Br829      Br  0.09050243  0.28319041  0.51316463    -0.05600
Br830      Br  0.17950309  0.27626581  0.45037970     0.00100
Br831      Br  0.14329826  0.23265097  0.58184084     0.00500
Br832      Br  0.13439733  0.32758597  0.53129794    -0.03900
Br833      Br  0.08805251  0.28129984  0.45476248     0.00600
Br834      Br  0.18199111  0.28407117  0.50836069    -0.03200
Br835      Br  0.14065754  0.23679403  0.52403697    -0.04100
Br836      Br  0.12877077  0.32350351  0.58924955    -0.00100
C837        C  0.14750216  0.28888041  0.32281392     0.01300
C838        C  0.15523360  0.27490781  0.30535616     0.04200
C839        C  0.16278787  0.28290358  0.28380005    -0.11900
C840        C  0.16292734  0.30485057  0.27947710     0.23500
C841        C  0.15501230  0.31880671  0.29662026    -0.12500
C842        C  0.14703911  0.31086507  0.31806178     0.04900
C843        C  0.17167434  0.31311710  0.25692698     0.27300
C844        C  0.19370387  0.31578695  0.25428286    -0.13200
C845        C  0.20223038  0.32233643  0.23258938     0.05400
C846        C  0.18866872  0.32690690  0.21338444    -0.09100
C847        C  0.16650721  0.32442616  0.21622411     0.06200
C848        C  0.15812205  0.31735307  0.23784717    -0.13500
Br849      Br  0.15529820  0.34887609  0.29064040    -0.05600
Br850      Br  0.15646807  0.24472977  0.31083252     0.00100
Br851      Br  0.23274105  0.32354067  0.22924725     0.00500
Br852      Br  0.12799172  0.31318278  0.24146866    -0.03900
Br853      Br  0.13410716  0.33010818  0.34006818     0.00600
Br854      Br  0.17326711  0.26383614  0.26001106    -0.03200
Br855      Br  0.21223626  0.31014225  0.28053036    -0.04100
Br856      Br  0.14731748  0.33150920  0.19104896    -0.00100
C857        C  0.45460857  0.17095238  0.14793635     0.01300
C858        C  0.46604818  0.15967994  0.13062532     0.04200
C859        C  0.48836632  0.16044345  0.13016010    -0.11900
C860        C  0.49948252  0.17169204  0.14750352     0.23500
C861        C  0.48820757  0.18215328  0.16540036    -0.12500
C862        C  0.46584352  0.18201824  0.16548601     0.04900
C863        C  0.52304248  0.17281732  0.14665879     0.27300
C864        C  0.53538759  0.15601838  0.15550348    -0.13200
C865        C  0.55769093  0.15705295  0.15457020     0.05400
C866        C  0.56784299  0.17511294  0.14502184    -0.09100
C867        C  0.55535665  0.19185986  0.13594195     0.06200
C868        C  0.53305744  0.19061083  0.13666161    -0.13500
Br869      Br  0.50361041  0.19658062  0.18982972    -0.05600
Br870      Br  0.45142955  0.14362847  0.10688115     0.00100
Br871      Br  0.57409204  0.13385942  0.16727309     0.00500
Br872      Br  0.51600467  0.21305789  0.12343247    -0.03900
Br873      Br  0.45076955  0.19613601  0.19042190     0.00600
Br874      Br  0.50388501  0.14657467  0.10534400    -0.03200
Br875      Br  0.52158429  0.13156151  0.16895652    -0.04100
Br876      Br  0.56847147  0.21611632  0.12119027    -0.00100
C877        C  0.38634233  0.16026949  0.07172388     0.01300
C878        C  0.36945294  0.14892173  0.06133641     0.04200
C879        C  0.36817942  0.14709996  0.03666056    -0.11900
C880        C  0.38354014  0.15683468  0.02223779     0.23500
C881        C  0.40078978  0.16739337  0.03257256    -0.12500
C882        C  0.40227845  0.16903754  0.05712790     0.04900
C883        C  0.38053873  0.15843390  0.99634391     0.27300
C884        C  0.38962168  0.14344901  0.98105567    -0.13200
C885        C  0.38966060  0.14707757  0.95655708     0.05400
C886        C  0.38047589  0.16574845  0.94721941    -0.09100
C887        C  0.37062486  0.18025720  0.96265700     0.06200
C888        C  0.37069000  0.17659275  0.98701609    -0.13500
Br889      Br  0.42192937  0.18053824  0.01275687    -0.05600
Br890      Br  0.34691060  0.13754976  0.08052895     0.00100
Br891      Br  0.40416057  0.12736958  0.93630083     0.00500
Br892      Br  0.35824292  0.19711656  0.00798646    -0.03900
Br893      Br  0.42645500  0.18336976  0.07042031     0.00600
Br894      Br  0.34496188  0.13204500  0.02240709    -0.03200
Br895      Br  0.40296269  0.11853230  0.99396766    -0.04100
Br896      Br  0.35697007  0.20545536  0.95079194    -0.00100
C897        C  0.34550580  0.22172006  0.14844248     0.01300
C898        C  0.34513727  0.23515672  0.16821164     0.04200
C899        C  0.32982629  0.25136505  0.16988793    -0.11900
C900        C  0.31440492  0.25382177  0.15222157     0.23500
C901        C  0.31446037  0.24014820  0.13274829    -0.12500
C902        C  0.33014679  0.22439742  0.13063817     0.04900
C903        C  0.29819001  0.27088696  0.15385957     0.27300
C904        C  0.27940620  0.26760899  0.16677113    -0.13200
C905        C  0.26353518  0.28331010  0.16716160     0.05400
C906        C  0.26617771  0.30226247  0.15421187    -0.09100
C907        C  0.28520976  0.30566024  0.14163615     0.06200
C908        C  0.30122432  0.29010116  0.14169951    -0.13500
Br909      Br  0.29276938  0.24293259  0.10906728    -0.05600
Br910      Br  0.36457306  0.23053884  0.19384564     0.00100
Br911      Br  0.23857761  0.27900954  0.18627600     0.00500
Br912      Br  0.32733139  0.29484929  0.12480299    -0.03900
Br913      Br  0.33106149  0.20722223  0.10266944     0.00600
Br914      Br  0.32974966  0.27020399  0.19645578    -0.03200
Br915      Br  0.27535606  0.24138656  0.18364866    -0.04100
Br916      Br  0.28893896  0.33088874  0.12286017    -0.00100
C917        C  0.31720503  0.09706612  0.45081910     0.01300
C918        C  0.31084440  0.07968497  0.46484054     0.04200
C919        C  0.31124148  0.08113697  0.48944854    -0.11900
C920        C  0.31900595  0.09953132  0.50032662     0.23500
C921        C  0.32724650  0.11611484  0.48643152    -0.12500
C922        C  0.32605410  0.11507289  0.46170634     0.04900
C923        C  0.31644122  0.10208491  0.52615697     0.27300
C924        C  0.29719840  0.11003274  0.53504312    -0.13200
C925        C  0.29348004  0.11043201  0.55939887     0.05400
C926        C  0.30908569  0.10299202  0.57524021    -0.09100
C927        C  0.32891623  0.09619313  0.56628135     0.06200
C928        C  0.33238883  0.09540284  0.54179871    -0.13500
Br929      Br  0.33932917  0.14056954  0.50148567    -0.05600
Br930      Br  0.30199197  0.05350188  0.45042503     0.00100
Br931      Br  0.26707904  0.12195833  0.57075608     0.00500
Br932      Br  0.35857369  0.08421619  0.52944331    -0.03900
Br933      Br  0.33493703  0.13903518  0.44310908     0.00600
Br934      Br  0.30003018  0.05834746  0.50838844    -0.03200
Br935      Br  0.27559840  0.11975152  0.51352803    -0.04100
Br936      Br  0.35115059  0.08694926  0.58716845    -0.00100
C937        C  0.25020365  0.13335603  0.38254369     0.01300
C938        C  0.23490416  0.13391954  0.36451963     0.04200
C939        C  0.21832646  0.14878623  0.36545690    -0.11900
C940        C  0.21700254  0.16294284  0.38442046     0.23500
C941        C  0.23167884  0.16169093  0.40295338    -0.12500
C942        C  0.24818196  0.14679996  0.40211099     0.04900
C943        C  0.20091853  0.17995388  0.38429662     0.27300
C944        C  0.20581470  0.19953491  0.37381894    -0.13200
C945        C  0.19097928  0.21610286  0.37430987     0.05400
C946        C  0.17111862  0.21311873  0.38536474    -0.09100
C947        C  0.16617093  0.19333262  0.39564800     0.06200
C948        C  0.18106822  0.17675842  0.39500786    -0.13500
Br949      Br  0.22938187  0.18075665  0.42921083    -0.05600
Br950      Br  0.23715792  0.11518094  0.33796566     0.00100
Br951      Br  0.19784407  0.24253065  0.35891951     0.00500
Br952      Br  0.17456378  0.14964698  0.40895978    -0.03900
Br953      Br  0.26746473  0.14419294  0.42829188     0.00600
Br954      Br  0.19775172  0.15037868  0.34048268    -0.03200
Br955      Br  0.23298287  0.20351790  0.35874277    -0.04100
Br956      Br  0.13964004  0.18911138  0.41193765    -0.00100
C957        C  0.32891343  0.11060430  0.31611158     0.01300
C958        C  0.33136014  0.09502828  0.29855323     0.04200
C959        C  0.33867615  0.10068494  0.27602706    -0.11900
C960        C  0.34364568  0.12191101  0.27084373     0.23500
C961        C  0.34111818  0.13751454  0.28826065    -0.12500
C962        C  0.33381979  0.13190184  0.31084178     0.04900
C963        C  0.35181179  0.12785149  0.24718700     0.27300
C964        C  0.37383367  0.12887405  0.24315161    -0.13200
C965        C  0.38166753  0.13586222  0.22130347     0.05400
C966        C  0.36751137  0.14183212  0.20329815    -0.09100
C967        C  0.34544200  0.13987649  0.20699713     0.06200
C968        C  0.33763417  0.13292840  0.22890945    -0.13500
Br969      Br  0.34715442  0.16671108  0.28081550    -0.05600
Br970      Br  0.32539719  0.06569754  0.30541447     0.00100
Br971      Br  0.41186302  0.13667554  0.21581670     0.00500
Br972      Br  0.30748410  0.13086096  0.23424420    -0.03900
Br973      Br  0.32925768  0.15368446  0.33396872     0.00600
Br974      Br  0.34173269  0.07941612  0.25204547    -0.03200
Br975      Br  0.39320676  0.12086411  0.26779729    -0.04100
Br976      Br  0.32577183  0.14801388  0.18266832    -0.00100
C977        C  0.80412846  0.41484064  0.87000914     0.01300
C978        C  0.78625380  0.42484748  0.88007898     0.04200
C979        C  0.78505956  0.44704245  0.88069154    -0.11900
C980        C  0.80187665  0.45931717  0.87182408     0.23500
C981        C  0.81962061  0.44944166  0.86159569    -0.12500
C982        C  0.82069915  0.42724428  0.86048538     0.04900
C983        C  0.80105834  0.48266243  0.87349217     0.27300
C984        C  0.79450108  0.49476652  0.85403583    -0.13200
C985        C  0.79442381  0.51698173  0.85534806     0.05400
C986        C  0.80071281  0.52710225  0.87624339    -0.09100
C987        C  0.80710146  0.51494077  0.89577370     0.06200
C988        C  0.80725866  0.49273349  0.89439630    -0.13500
Br989      Br  0.84246904  0.46649047  0.84919294    -0.05600
Br990      Br  0.76390236  0.40845192  0.89458987     0.00100
Br991      Br  0.78699136  0.53345921  0.82799557     0.00500
Br992      Br  0.81596722  0.47599855  0.92109763    -0.03900
Br993      Br  0.84456536  0.41411079  0.84501302     0.00600
Br994      Br  0.76044648  0.46077038  0.89386865    -0.03200
Br995      Br  0.78586444  0.48073995  0.82556270    -0.04100
Br996      Br  0.81497726  0.52864702  0.92469172    -0.00100
C997        C  0.83144137  0.60611799  0.81546016     0.01300
C998        C  0.81925152  0.60641881  0.79452153     0.04200
C999        C  0.82889810  0.61139268  0.77289077    -0.11900
C1000       C  0.85041890  0.61714476  0.77203955     0.23500
C1001       C  0.86260917  0.61693830  0.79268698    -0.12500
C1002       C  0.85335462  0.61094298  0.81421873     0.04900
C1003       C  0.85952172  0.62569356  0.74990836     0.27300
C1004       C  0.87000598  0.61238364  0.73382729    -0.13200
C1005       C  0.87804671  0.62077293  0.71263338     0.05400
C1006       C  0.87555207  0.64251167  0.70749040    -0.09100
C1007       C  0.86550744  0.65586998  0.72400437     0.06200
C1008       C  0.85737150  0.64741574  0.74497578    -0.13500
Br1009     Br  0.89189832  0.62571585  0.79142036    -0.05600
Br1010     Br  0.78892612  0.60190195  0.79504164     0.00100
Br1011     Br  0.89367449  0.60277243  0.69148064     0.00500
Br1012     Br  0.84281729  0.66554298  0.76698565    -0.03900
Br1013     Br  0.87123250  0.60869946  0.84157999     0.00600
Br1014     Br  0.81255080  0.61116335  0.74422811    -0.03200
Br1015     Br  0.87323081  0.58270282  0.74095285    -0.04100
Br1016     Br  0.86209796  0.68581286  0.71796710    -0.00100
C1017       C  0.72401056  0.91076404  0.65601466     0.01300
C1018       C  0.73863391  0.92232745  0.64221974     0.04200
C1019       C  0.73759286  0.94456093  0.64151744    -0.11900
C1020       C  0.72320776  0.95541537  0.65604773     0.23500
C1021       C  0.70914080  0.94398111  0.67049712    -0.12500
C1022       C  0.70899875  0.92171773  0.66986777     0.04900
C1023       C  0.72257938  0.97888331  0.65575838     0.27300
C1024       C  0.73746255  0.99056303  0.66877584    -0.13200
C1025       C  0.73680724  0.01284868  0.66855348     0.05400
C1026       C  0.72135421  0.02356097  0.65500163    -0.09100
C1027       C  0.70655661  0.01170679  0.64181178     0.06200
C1028       C  0.70721200  0.98946473  0.64222695    -0.13500
Br1029     Br  0.69002221  0.95897281  0.69107317    -0.05600
Br1030     Br  0.75955582  0.90793736  0.62332858     0.00100
Br1031     Br  0.75662347  0.02839833  0.68768843     0.00500
Br1032     Br  0.68750117  0.97331314  0.62357445    -0.03900
Br1033     Br  0.68829237  0.90648715  0.68830893     0.00600
Br1034     Br  0.75503481  0.96025953  0.61973183    -0.03200
Br1035     Br  0.75892764  0.97583046  0.68663265    -0.04100
Br1036     Br  0.68607002  0.02561580  0.62181465    -0.00100
C1037       C  0.76855814  0.79907381  0.65364527     0.01300
C1038       C  0.78324083  0.79838595  0.67231614     0.04200
C1039       C  0.79812831  0.78181672  0.67364328    -0.11900
C1040       C  0.79907803  0.76654384  0.65574079     0.23500
C1041       C  0.78438310  0.76716747  0.63716639    -0.12500
C1042       C  0.76892796  0.78317314  0.63632110     0.04900
C1043       C  0.81597104  0.75021878  0.65580038     0.27300
C1044       C  0.83608169  0.75512041  0.64657581    -0.13200
C1045       C  0.85147978  0.73917043  0.64409039     0.05400
C1046       C  0.84713252  0.71828277  0.65178240    -0.09100
C1047       C  0.82699593  0.71357087  0.66158858     0.06200
C1048       C  0.81152318  0.72954258  0.66357016    -0.13500
Br1049     Br  0.78555774  0.74607371  0.61276044    -0.05600
Br1050     Br  0.78253681  0.81959760  0.69660909     0.00100
Br1051     Br  0.87766065  0.74592417  0.62808355     0.00500
Br1052     Br  0.78409655  0.72331990  0.67704859    -0.03900
Br1053     Br  0.74882418  0.78360534  0.61081193     0.00600
Br1054     Br  0.81688618  0.77954956  0.70023988    -0.03200
Br1055     Br  0.84238808  0.78384724  0.63719244    -0.04100
Br1056     Br  0.82021619  0.68547632  0.67279489    -0.00100
C1057       C  0.67789226  0.71871784  0.88250283     0.01300
C1058       C  0.67532335  0.70373099  0.86435881     0.04200
C1059       C  0.68887113  0.68608553  0.86306988    -0.11900
C1060       C  0.70506908  0.68338521  0.87975588     0.23500
C1061       C  0.70774927  0.69826386  0.89780070    -0.12500
C1062       C  0.69441307  0.71605189  0.89904015     0.04900
C1063       C  0.72045703  0.66586003  0.87727957     0.27300
C1064       C  0.71800002  0.64709076  0.89037768    -0.13200
C1065       C  0.73355660  0.63114901  0.88916035     0.05400
C1066       C  0.75153700  0.63396098  0.87463381    -0.09100
C1067       C  0.75339671  0.65241589  0.86073724     0.06200
C1068       C  0.73809139  0.66847644  0.86241715    -0.13500
Br1069     Br  0.72994161  0.69419483  0.92072899    -0.05600
Br1070     Br  0.65453973  0.70811583  0.83994896     0.00100
Br1071     Br  0.73074181  0.60629918  0.90874807     0.00500
Br1072     Br  0.74168423  0.69461478  0.84519714    -0.03900
Br1073     Br  0.69911435  0.73646050  0.92362905     0.00600
Br1074     Br  0.68568694  0.66572707  0.83814794    -0.03200
Br1075     Br  0.69379227  0.64381817  0.91083481    -0.04100
Br1076     Br  0.77649283  0.65557332  0.83869962    -0.00100
C1077       C  0.65765437  0.80223328  0.82978994     0.01300
C1078       C  0.64333263  0.81174207  0.81396394     0.04200
C1079       C  0.65049293  0.81925988  0.79199917    -0.11900
C1080       C  0.67196916  0.81694323  0.78550575     0.23500
C1081       C  0.68648819  0.80837829  0.80183583    -0.12500
C1082       C  0.67933926  0.80097896  0.82385730     0.04900
C1083       C  0.67916985  0.82266946  0.76127513     0.27300
C1084       C  0.67544299  0.80875449  0.74239295    -0.13200
C1085       C  0.68314570  0.81357322  0.71969824     0.05400
C1086       C  0.69503779  0.83223130  0.71574826    -0.09100
C1087       C  0.69870933  0.84614307  0.73477537     0.06200
C1088       C  0.69039919  0.84159050  0.75722033    -0.13500
Br1089     Br  0.71615746  0.80633833  0.79379936    -0.05600
Br1090     Br  0.61385429  0.81446457  0.82252844     0.00100
Br1091     Br  0.67870282  0.79361893  0.69460032     0.00500
Br1092     Br  0.69423824  0.86137659  0.78258254    -0.03900
Br1093     Br  0.69901321  0.78760304  0.84516835     0.00600
Br1094     Br  0.63092862  0.83273150  0.77069737    -0.03200
Br1095     Br  0.66019473  0.78270751  0.74787556    -0.04100
Br1096     Br  0.71507290  0.87169755  0.73048273    -0.00100
C1097       C  0.72274276  0.02926736  0.37829095     0.01300
C1098       C  0.73424025  0.01714768  0.36185385     0.04200
C1099       C  0.73351299  0.99488481  0.36292310    -0.11900
C1100       C  0.72119146  0.98472633  0.38024294     0.23500
C1101       C  0.71056625  0.99677334  0.39731568    -0.12500
C1102       C  0.71161222  0.01896863  0.39656964     0.04900
C1103       C  0.71895232  0.96138205  0.38023497     0.27300
C1104       C  0.70145745  0.95200856  0.36902590    -0.13200
C1105       C  0.69915425  0.92985604  0.36898465     0.05400
C1106       C  0.71425164  0.91695827  0.38048094    -0.09100
C1107       C  0.73150450  0.92652654  0.39226319     0.06200
C1108       C  0.73396681  0.94865069  0.39182274    -0.13500
Br1109     Br  0.69450035  0.98275225  0.42168628    -0.05600
Br1110     Br  0.75037174  0.03083353  0.33735637     0.00100
Br1111     Br  0.67569754  0.91747125  0.35228188     0.00500
Br1112     Br  0.75783204  0.96170091  0.40724259    -0.03900
Br1113     Br  0.69908091  0.03508002  0.42171735     0.00600
Br1114     Br  0.74920513  0.97814219  0.34061163    -0.03200
Br1115     Br  0.68065483  0.96973718  0.35373364    -0.04100
Br1116     Br  0.75108948  0.90970940  0.41056032    -0.00100
C1117       C  0.69473957  0.84823474  0.45539791     0.01300
C1118       C  0.69098628  0.82883484  0.46705523     0.04200
C1119       C  0.69155208  0.82787254  0.49181452    -0.11900
C1120       C  0.69561869  0.84628842  0.50501862     0.23500
C1121       C  0.69743611  0.86594377  0.49340640    -0.12500
C1122       C  0.69684866  0.86692887  0.46872656     0.04900
C1123       C  0.69980510  0.84479801  0.53076906     0.27300
C1124       C  0.68407765  0.85031771  0.54723586    -0.13200
C1125       C  0.68861892  0.84996179  0.57149485     0.05400
C1126       C  0.70885713  0.84360619  0.57960193    -0.09100
C1127       C  0.72465646  0.83818884  0.56292546     0.06200
C1128       C  0.72008017  0.83873204  0.53870400    -0.13500
Br1129     Br  0.70175482  0.89145559  0.51129351    -0.05600
Br1130     Br  0.68640216  0.80332232  0.44930398     0.00100
Br1131     Br  0.66762819  0.86031012  0.59329775     0.00500
Br1132     Br  0.74175928  0.83147365  0.51607533    -0.03900
Br1133     Br  0.69859188  0.89408094  0.45311034     0.00600
Br1134     Br  0.68789607  0.80116140  0.50778345    -0.03200
Br1135     Br  0.65639877  0.85882440  0.53636688    -0.04100
Br1136     Br  0.75276208  0.82989230  0.57273959    -0.00100
C1137       C  0.62719885  0.76934436  0.08570416     0.01300
C1138       C  0.64585240  0.77868789  0.07651786     0.04200
C1139       C  0.64818363  0.78152031  0.05209916    -0.11900
C1140       C  0.63186088  0.77534904  0.03674462     0.23500
C1141       C  0.61292067  0.76687886  0.04589070    -0.12500
C1142       C  0.61061069  0.76372514  0.07022110     0.04900
C1143       C  0.63522735  0.77582966  0.01090174     0.27300
C1144       C  0.63029304  0.79401678  0.99763068    -0.13200
C1145       C  0.63211619  0.79371347  0.97293378     0.05400
C1146       C  0.63857805  0.77501231  0.96132099    -0.09100
C1147       C  0.64386676  0.75690439  0.97489873     0.06200
C1148       C  0.64236932  0.75744375  0.99952072    -0.13500
Br1149     Br  0.59033694  0.75906196  0.02477426    -0.05600
Br1150     Br  0.66906185  0.78620771  0.09693331     0.00100
Br1151     Br  0.62411462  0.81854437  0.95524206     0.00500
Br1152     Br  0.64961981  0.73272294  0.01794984    -0.03900
Br1153     Br  0.58440323  0.75194208  0.08202190     0.00600
Br1154     Br  0.67414441  0.79295374  0.03941234    -0.03200
Br1155     Br  0.62016803  0.81900894  0.01343791    -0.04100
Br1156     Br  0.65335025  0.73104722  0.96027100    -0.00100
C1157       C  0.68090928  0.83115634  0.32301088     0.01300
C1158       C  0.66559839  0.84276533  0.31033339     0.04200
C1159       C  0.65837690  0.83534602  0.28840710    -0.11900
C1160       C  0.66605089  0.81603935  0.27937462     0.23500
C1161       C  0.68118518  0.80436574  0.29218138    -0.12500
C1162       C  0.68862532  0.81191895  0.31386004     0.04900
C1163       C  0.65730740  0.80715096  0.25722309     0.27300
C1164       C  0.63983235  0.79334098  0.25822483    -0.13200
C1165       C  0.63229620  0.78354579  0.23770131     0.05400
C1166       C  0.64256632  0.78708991  0.21591795    -0.09100
C1167       C  0.65990396  0.80132626  0.21491413     0.06200
C1168       C  0.66709647  0.81141522  0.23548331    -0.13500
Br1169     Br  0.69161196  0.77788719  0.27994939    -0.05600
Br1170     Br  0.65485524  0.86898025  0.32272597     0.00100
Br1171     Br  0.60727215  0.76601114  0.23971462     0.00500
Br1172     Br  0.69075527  0.83073559  0.23412782    -0.03900
Br1173     Br  0.70884371  0.79542158  0.33158730     0.00600
Br1174     Br  0.63823752  0.85167299  0.27044198    -0.03200
Br1175     Br  0.62656448  0.78752856  0.28810787    -0.04100
Br1176     Br  0.67495305  0.80616715  0.18583158    -0.00100
C1177       C  0.88493287  0.66976155  0.45064148     0.01300
C1178       C  0.89996505  0.67856367  0.46617608     0.04200
C1179       C  0.89834320  0.67485452  0.49044062    -0.11900
C1180       C  0.88190289  0.66211849  0.49944225     0.23500
C1181       C  0.86713708  0.65289126  0.48402224    -0.12500
C1182       C  0.86855235  0.65678580  0.45966036     0.04900
C1183       C  0.87978313  0.65971241  0.52530281     0.27300
C1184       C  0.89049806  0.64329472  0.53719318    -0.13200
C1185       C  0.89207110  0.64357543  0.56189876     0.05400
C1186       C  0.88296036  0.66038672  0.57471234    -0.09100
C1187       C  0.87073101  0.67579716  0.56281914     0.06200
C1188       C  0.86929072  0.67553109  0.53821195    -0.13500
Br1189     Br  0.84462740  0.63552173  0.49650150    -0.05600
Br1190     Br  0.92326356  0.69540602  0.45440503     0.00100
Br1191     Br  0.90810343  0.62186160  0.57778247     0.00500
Br1192     Br  0.85403182  0.69762805  0.52193985    -0.03900
Br1193     Br  0.84701732  0.64571779  0.43904915     0.00600
Br1194     Br  0.91835796  0.68775076  0.51167119    -0.03200
Br1195     Br  0.90407090  0.62121839  0.51933960    -0.04100
Br1196     Br  0.85570899  0.69734466  0.58020159    -0.00100
C1197       C  0.84413429  0.73445581  0.37896030     0.01300
C1198       C  0.82337097  0.73010932  0.37088554     0.04200
C1199       C  0.80761315  0.74584919  0.37186569    -0.11900
C1200       C  0.81232723  0.76591412  0.38114296     0.23500
C1201       C  0.83304171  0.77046054  0.38882328    -0.12500
C1202       C  0.84897613  0.75485791  0.38759729     0.04900
C1203       C  0.79532495  0.78211779  0.38282623     0.27300
C1204       C  0.79302322  0.79743545  0.36502121    -0.13200
C1205       C  0.77583858  0.81166729  0.36555614     0.05400
C1206       C  0.76110857  0.81095753  0.38428488    -0.09100
C1207       C  0.76398399  0.79612018  0.40260229     0.06200
C1208       C  0.78085618  0.78154772  0.40166991    -0.13500
Br1209     Br  0.83938788  0.79804295  0.40143297    -0.05600
Br1210     Br  0.81633975  0.70289079  0.35757996     0.00100
Br1211     Br  0.77197228  0.83112860  0.33971651     0.00500
Br1212     Br  0.78408932  0.76051527  0.42604843    -0.03900
Br1213     Br  0.87703983  0.76138639  0.39902967     0.00600
Br1214     Br  0.77938680  0.74006058  0.36043387    -0.03200
Br1215     Br  0.81331185  0.79852730  0.33964750    -0.04100
Br1216     Br  0.74560101  0.79638285  0.42971451    -0.00100
C1217       C  0.80290879  0.41745048  0.14740815     0.01300
C1218       C  0.79344164  0.43013342  0.12994360     0.04200
C1219       C  0.79340627  0.45229377  0.13216043    -0.11900
C1220       C  0.80364207  0.46191212  0.15132592     0.23500
C1221       C  0.81300812  0.44926496  0.16888399    -0.12500
C1222       C  0.81245107  0.42704187  0.16707091     0.04900
C1223       C  0.80509952  0.48533555  0.15254621     0.27300
C1224       C  0.82118141  0.49600627  0.14007952    -0.13200
C1225       C  0.82169336  0.51827266  0.13964027     0.05400
C1226       C  0.80664239  0.52999894  0.15264167    -0.09100
C1227       C  0.79136614  0.51918336  0.16632611     0.06200
C1228       C  0.79029981  0.49693426  0.16580962    -0.13500
Br1229     Br  0.82654485  0.46255345  0.19536164    -0.05600
Br1230     Br  0.78186568  0.41721182  0.10211423     0.00100
Br1231     Br  0.84225479  0.53239395  0.11988690     0.00500
Br1232     Br  0.76846777  0.48220763  0.18308529    -0.03900
Br1233     Br  0.82403046  0.40980079  0.19196000     0.00600
Br1234     Br  0.77917470  0.46954285  0.10905273    -0.03200
Br1235     Br  0.84255004  0.47995800  0.12361545    -0.04100
Br1236     Br  0.77264688  0.53462137  0.18694340    -0.00100
C1237       C  0.82053859  0.59484891  0.07441500     0.01300
C1238       C  0.81101281  0.57908271  0.06029973     0.04200
C1239       C  0.81164458  0.58065461  0.03562749    -0.11900
C1240       C  0.82238371  0.59756901  0.02470824     0.23500
C1241       C  0.83332268  0.61237476  0.03863030    -0.12500
C1242       C  0.83250898  0.61100839  0.06339292     0.04900
C1243       C  0.82155514  0.59997511  0.99862687     0.27300
C1244       C  0.83652733  0.58967790  0.98422514    -0.13200
C1245       C  0.83445270  0.59029117  0.95955752     0.05400
C1246       C  0.81710974  0.60091538  0.94915848    -0.09100
C1247       C  0.80307762  0.61254537  0.96355334     0.06200
C1248       C  0.80513779  0.61185362  0.98817084    -0.13500
Br1249     Br  0.84876041  0.63496981  0.02353153    -0.05600
Br1250     Br  0.79791770  0.55456633  0.07459969     0.00100
Br1251     Br  0.85491338  0.57575342  0.94025948     0.00500
Br1252     Br  0.78494401  0.62651671  0.00771481    -0.03900
Br1253     Br  0.84711800  0.63188767  0.08189033     0.00600
Br1254     Br  0.79717483  0.55996995  0.01659639    -0.03200
Br1255     Br  0.85930212  0.57389692  0.99849172    -0.04100
Br1256     Br  0.78157777  0.63031568  0.94949079    -0.00100
C1257       C  0.75315409  0.63445623  0.14612347     0.01300
C1258       C  0.75495583  0.65531722  0.15478981     0.04200
C1259       C  0.73718721  0.66875439  0.15482720    -0.11900
C1260       C  0.71739589  0.66121451  0.14712609     0.23500
C1261       C  0.71557234  0.64056584  0.13820034    -0.12500
C1262       C  0.73343406  0.62722960  0.13752193     0.04900
C1263       C  0.69859857  0.67522313  0.14840373     0.27300
C1264       C  0.68696366  0.67674379  0.16945965    -0.13200
C1265       C  0.67049574  0.69169673  0.17148517     0.05400
C1266       C  0.66584207  0.70528552  0.15248181    -0.09100
C1267       C  0.67689193  0.70301500  0.13107478     0.06200
C1268       C  0.69319687  0.68797244  0.12904372    -0.13500
Br1269     Br  0.68865527  0.63088012  0.12631754    -0.05600
Br1270     Br  0.78129418  0.66538331  0.16796981     0.00100
Br1271     Br  0.65536117  0.69438580  0.20075815     0.00500
Br1272     Br  0.70856226  0.68505551  0.09992712    -0.03900
Br1273     Br  0.73092832  0.59952826  0.12355131     0.00600
Br1274     Br  0.73992456  0.69777928  0.16490939    -0.03200
Br1275     Br  0.69421463  0.65875194  0.19570157    -0.04100
Br1276     Br  0.66944239  0.72020130  0.10423717    -0.00100
C1277       C  0.82936189  0.61928451  0.20836789     0.01300
C1278       C  0.81466911  0.62572396  0.22581487     0.04200
C1279       C  0.82187722  0.63342365  0.24763149    -0.11900
C1280       C  0.84377125  0.63452699  0.25241939     0.23500
C1281       C  0.85841649  0.62852768  0.23496281    -0.12500
C1282       C  0.85130385  0.62104087  0.21302464     0.04900
C1283       C  0.85149720  0.64274344  0.27545475     0.27300
C1284       C  0.85385696  0.66469039  0.27879250    -0.13200
C1285       C  0.86152898  0.67259670  0.30026113     0.05400
C1286       C  0.86755638  0.65854824  0.31849548    -0.09100
C1287       C  0.86520084  0.63651575  0.31511855     0.06200
C1288       C  0.85701963  0.62869202  0.29376346    -0.13500
Br1289     Br  0.88836752  0.63081814  0.24124463    -0.05600
Br1290     Br  0.78451810  0.62516101  0.21969698     0.00100
Br1291     Br  0.86257464  0.70289273  0.30481727     0.00500
Br1292     Br  0.85358255  0.59863953  0.28936900    -0.03900
Br1293     Br  0.87183645  0.61241379  0.18986107     0.00600
Br1294     Br  0.80179002  0.64300179  0.27091217    -0.03200
Br1295     Br  0.84674646  0.68393843  0.25363981    -0.04100
Br1296     Br  0.87431424  0.61687472  0.33908878    -0.00100
C1297       C  0.95812063  0.67665301  0.65170659     0.01300
C1298       C  0.96948311  0.69278341  0.63992386     0.04200
C1299       C  0.99168807  0.69396135  0.64205315    -0.11900
C1300       C  0.00271529  0.67884726  0.65553625     0.23500
C1301       C  0.99138365  0.66328725  0.66808817    -0.12500
C1302       C  0.96912437  0.66227314  0.66634514     0.04900
C1303       C  0.02624389  0.67804848  0.65440832     0.27300
C1304       C  0.03603632  0.66601847  0.63670777    -0.13200
C1305       C  0.05825719  0.66581399  0.63452955     0.05400
C1306       C  0.07093595  0.67767012  0.65014893    -0.09100
C1307       C  0.06102898  0.68973511  0.66795650     0.06200
C1308       C  0.03874002  0.68988655  0.67004846    -0.13500
Br1309     Br  0.00651854  0.64319162  0.68736511    -0.05600
Br1310     Br  0.95505077  0.71242929  0.61941854     0.00100
Br1311     Br  0.07091223  0.65037375  0.60894406     0.00500
Br1312     Br  0.02516543  0.70646217  0.69413987    -0.03900
Br1313     Br  0.95376113  0.64165424  0.68481680     0.00600
Br1314     Br  0.00728833  0.71593140  0.62596924    -0.03200
Br1315     Br  0.01871354  0.65026235  0.61496366    -0.04100
Br1316     Br  0.07779457  0.70560820  0.69010516    -0.00100
C1317       C  0.21461307  0.53320661  0.87906657     0.01300
C1318       C  0.20333444  0.52224002  0.89682353     0.04200
C1319       C  0.20299040  0.49993895  0.89713846    -0.11900
C1320       C  0.21415069  0.48838106  0.88001145     0.23500
C1321       C  0.22538585  0.49922967  0.86228951    -0.12500
C1322       C  0.22533171  0.52153767  0.86156212     0.04900
C1323       C  0.21406577  0.46480549  0.88071721     0.27300
C1324       C  0.23117151  0.45374067  0.89086895    -0.13200
C1325       C  0.23102724  0.43144441  0.89175924     0.05400
C1326       C  0.21372571  0.42000183  0.88245960    -0.09100
C1327       C  0.19629574  0.43119202  0.87292060     0.06200
C1328       C  0.19661510  0.45348219  0.87181365    -0.13500
Br1329     Br  0.24105122  0.48340073  0.83913096    -0.05600
Br1330     Br  0.18923356  0.53744409  0.92168594     0.00100
Br1331     Br  0.25387763  0.41678146  0.90744659     0.00500
Br1332     Br  0.17315555  0.46867099  0.85796463    -0.03900
Br1333     Br  0.23890336  0.53592412  0.83564859     0.00600
Br1334     Br  0.18752821  0.48503790  0.92135378    -0.03200
Br1335     Br  0.25467903  0.46929228  0.90390153    -0.04100
Br1336     Br  0.17196161  0.41627113  0.86090881    -0.00100
C1337       C  0.15438980  0.64577703  0.70397497     0.01300
C1338       C  0.17502145  0.63743380  0.70693765     0.04200
C1339       C  0.18177645  0.63053066  0.72929239    -0.11900
C1340       C  0.16789545  0.63162513  0.74866561     0.23500
C1341       C  0.14696737  0.63878863  0.74544596    -0.12500
C1342       C  0.14019715  0.64576061  0.72320335     0.04900
C1343       C  0.17544033  0.62584147  0.77257878     0.27300
C1344       C  0.17480371  0.60462144  0.78024358    -0.13200
C1345       C  0.18259116  0.59912993  0.80259886     0.05400
C1346       C  0.19020802  0.61495246  0.81778047    -0.09100
C1347       C  0.19018474  0.63629106  0.81044068     0.06200
C1348       C  0.18313605  0.64167221  0.78773803    -0.13500
Br1349     Br  0.12775506  0.63946114  0.77181127    -0.05600
Br1350     Br  0.19455704  0.63646510  0.68088876     0.00100
Br1351     Br  0.18259559  0.56992835  0.81264310     0.00500
Br1352     Br  0.18440953  0.67067294  0.77708237    -0.03900
Br1353     Br  0.11112624  0.65463939  0.71902711     0.00600
Br1354     Br  0.21035370  0.62035485  0.73377456    -0.03200
Br1355     Br  0.16301535  0.58318237  0.76013980    -0.04100
Br1356     Br  0.20076526  0.65803313  0.83104777    -0.00100
C1357       C  0.29913332  0.91898279  0.66018279     0.01300
C1358       C  0.28400190  0.92984694  0.64639049     0.04200
C1359       C  0.28334986  0.95210879  0.64643790    -0.11900
C1360       C  0.29798174  0.96367290  0.65991542     0.23500
C1361       C  0.31283078  0.95291023  0.67402950    -0.12500
C1362       C  0.31330456  0.93061319  0.67433735     0.04900
C1363       C  0.29818949  0.98716089  0.65849446     0.27300
C1364       C  0.31062187  0.99734375  0.64130684    -0.13200
C1365       C  0.31031640  0.01956426  0.63926272     0.05400
C1366       C  0.29732215  0.03175495  0.65428955    -0.09100
C1367       C  0.28525256  0.02148080  0.67188855     0.06200
C1368       C  0.28563403  0.99924521  0.67387871    -0.13500
Br1369     Br  0.33273741  0.96886578  0.69258298    -0.05600
Br1370     Br  0.26510260  0.91449317  0.62595050     0.00100
Br1371     Br  0.32710604  0.03297655  0.61508029     0.00500
Br1372     Br  0.26883771  0.98512448  0.69753300    -0.03900
Br1373     Br  0.33288466  0.91612550  0.69484920     0.00600
Br1374     Br  0.26275856  0.96694484  0.62751858    -0.03200
Br1375     Br  0.32767747  0.98060574  0.62018236    -0.04100
Br1376     Br  0.26911313  0.03776774  0.69427031    -0.00100
C1377       C  0.25566928  0.80981080  0.64707595     0.01300
C1378       C  0.24110865  0.80702630  0.66567634     0.04200
C1379       C  0.22559570  0.79107920  0.66441666    -0.11900
C1380       C  0.22445737  0.77793479  0.64457325     0.23500
C1381       C  0.23854332  0.78104024  0.62569189    -0.12500
C1382       C  0.25418932  0.79688820  0.62694732     0.04900
C1383       C  0.20903611  0.76022432  0.64417296     0.27300
C1384       C  0.21493611  0.74032311  0.65320970    -0.13200
C1385       C  0.19999799  0.72383265  0.65445086     0.05400
C1386       C  0.17931877  0.72683466  0.64547060    -0.09100
C1387       C  0.17360605  0.74673542  0.63590734     0.06200
C1388       C  0.18832661  0.76348035  0.63573868    -0.13500
Br1389     Br  0.23640043  0.76335917  0.59824889    -0.05600
Br1390     Br  0.24312103  0.82400985  0.69365308     0.00100
Br1391     Br  0.20765834  0.69777961  0.67012369     0.00500
Br1392     Br  0.18021280  0.79102756  0.62409647    -0.03900
Br1393     Br  0.27311448  0.80121046  0.60068925     0.00600
Br1394     Br  0.20610473  0.78671571  0.69012415    -0.03200
Br1395     Br  0.24361413  0.73581057  0.66395704    -0.04100
Br1396     Br  0.14607943  0.75105786  0.62184050    -0.00100
C1397       C  0.57156346  0.77011615  0.88300966     0.01300
C1398       C  0.56119930  0.76026431  0.86399998     0.04200
C1399       C  0.53892655  0.75888965  0.86362312    -0.11900
C1400       C  0.52688275  0.76736982  0.88216377     0.23500
C1401       C  0.53714854  0.77719371  0.90115771    -0.12500
C1402       C  0.55941762  0.77878219  0.90150306     0.04900
C1403       C  0.50335952  0.76667339  0.88124561     0.27300
C1404       C  0.49219591  0.78282455  0.86950950    -0.13200
C1405       C  0.46988543  0.78252699  0.86887473     0.05400
C1406       C  0.45855989  0.76599840  0.88004809    -0.09100
C1407       C  0.46987273  0.74955842  0.89141137     0.06200
C1408       C  0.49220384  0.74999331  0.89207504    -0.13500
Br1409     Br  0.52057214  0.78803943  0.92695497    -0.05600
Br1410     Br  0.57733454  0.74962665  0.83774054     0.00100
Br1411     Br  0.45510187  0.80442005  0.85172040     0.00500
Br1412     Br  0.50767595  0.72801460  0.90828155    -0.03900
Br1413     Br  0.57308920  0.79210586  0.92791170     0.00600
Br1414     Br  0.52473895  0.74533227  0.83774576    -0.03200
Br1415     Br  0.50770149  0.80544465  0.85441713    -0.04100
Br1416     Br  0.45503052  0.72691645  0.90727585    -0.00100
C1417       C  0.34934801  0.71921390  0.88142509     0.01300
C1418       C  0.33535132  0.71816274  0.86217692     0.04200
C1419       C  0.31975217  0.70226949  0.86136672    -0.11900
C1420       C  0.31799016  0.68755905  0.87989018     0.23500
C1421       C  0.33225277  0.68834362  0.89886581    -0.12500
C1422       C  0.34794472  0.70413430  0.89961982     0.04900
C1423       C  0.30069993  0.67167032  0.87982790     0.27300
C1424       C  0.28082590  0.67687542  0.88940558    -0.13200
C1425       C  0.26433318  0.66189244  0.88952701     0.05400
C1426       C  0.26770517  0.64138152  0.88011122    -0.09100
C1427       C  0.28795567  0.63612462  0.87100029     0.06200
C1428       C  0.30424677  0.65136280  0.87061098    -0.13500
Br1429     Br  0.32996869  0.66790977  0.92395941    -0.05600
Br1430     Br  0.33794794  0.73808670  0.83656424     0.00100
Br1431     Br  0.23765719  0.66967642  0.90396048     0.00500
Br1432     Br  0.33153376  0.64470073  0.85714040    -0.03900
Br1433     Br  0.36677013  0.70581053  0.92619860     0.00600
Br1434     Br  0.30076267  0.70048971  0.83492194    -0.03200
Br1435     Br  0.27640228  0.70468141  0.90259449    -0.04100
Br1436     Br  0.29374507  0.60837892  0.85838362    -0.00100
C1437       C  0.37636305  0.79653624  0.82127141     0.01300
C1438       C  0.38310971  0.78759436  0.79962811     0.04200
C1439       C  0.37576808  0.79598838  0.77820017    -0.11900
C1440       C  0.36176554  0.81329079  0.77800108     0.23500
C1441       C  0.35556331  0.82271229  0.79924632    -0.12500
C1442       C  0.36257356  0.81429071  0.82081847     0.04900
C1443       C  0.35222200  0.82049112  0.75552359     0.27300
C1444       C  0.36218695  0.83618747  0.74181804    -0.13200
C1445       C  0.35306454  0.84274257  0.72041727     0.05400
C1446       C  0.33382819  0.83365455  0.71270411    -0.09100
C1447       C  0.32397818  0.81780655  0.72648029     0.06200
C1448       C  0.33311506  0.81134449  0.74783809    -0.13500
Br1449     Br  0.33689008  0.84693883  0.79852582    -0.05600
Br1450     Br  0.40249171  0.76386701  0.79852773     0.00100
Br1451     Br  0.36646162  0.86495521  0.70246036     0.00500
Br1452     Br  0.31943577  0.78996935  0.76685712    -0.03900
Br1453     Br  0.35143321  0.82639273  0.84938790     0.00600
Br1454     Br  0.38453357  0.78359737  0.74878481    -0.03200
Br1455     Br  0.38810968  0.84894013  0.75279973    -0.04100
Br1456     Br  0.29844964  0.80403712  0.71574787    -0.00100
C1457       C  0.95457598  0.68976130  0.37740925     0.01300
C1458       C  0.96624436  0.67259105  0.36798281     0.04200
C1459       C  0.98855891  0.67294652  0.36802018    -0.11900
C1460       C  0.99951294  0.69038955  0.37730395     0.23500
C1461       C  0.98810899  0.70778474  0.38614296    -0.12500
C1462       C  0.96571947  0.70752001  0.38627698     0.04900
C1463       C  0.02308848  0.69011320  0.37783363     0.27300
C1464       C  0.03373494  0.67961102  0.39620894    -0.13200
C1465       C  0.05591073  0.67703304  0.39536385     0.05400
C1466       C  0.06769438  0.68600532  0.37669409    -0.09100
C1467       C  0.05700897  0.69690861  0.35856191     0.06200
C1468       C  0.03476952  0.69878463  0.35905332    -0.13500
Br1469     Br  0.00341196  0.73185562  0.39823786    -0.05600
Br1470     Br  0.95203769  0.64876573  0.35381204     0.00100
Br1471     Br  0.06982915  0.66110183  0.41988082     0.00500
Br1472     Br  0.02014443  0.71278772  0.33369976    -0.03900
Br1473     Br  0.95077092  0.73122834  0.39979467     0.00600
Br1474     Br  0.00441079  0.64952079  0.35512697    -0.03200
Br1475     Br  0.01776558  0.66888755  0.42261288    -0.04100
Br1476     Br  0.07260544  0.70779611  0.33195179    -0.00100
C1477       C  0.13961380  0.67277131  0.44702220     0.01300
C1478       C  0.12484743  0.68295758  0.46188031     0.04200
C1479       C  0.12642945  0.68069125  0.48633430    -0.11900
C1480       C  0.14301897  0.66870852  0.49619090     0.23500
C1481       C  0.15791742  0.65871415  0.48148976    -0.12500
C1482       C  0.15621388  0.66068597  0.45691996     0.04900
C1483       C  0.14496999  0.66747176  0.52210617     0.27300
C1484       C  0.15500458  0.68398582  0.53432192    -0.13200
C1485       C  0.15428625  0.68452121  0.55897864     0.05400
C1486       C  0.14325052  0.66864955  0.57157695    -0.09100
C1487       C  0.13393266  0.65166348  0.55930845     0.06200
C1488       C  0.13497274  0.65100356  0.53461773    -0.13500
Br1489     Br  0.18086553  0.64274930  0.49517268    -0.05600
Br1490     Br  0.10213149  0.69997314  0.44906518     0.00100
Br1491     Br  0.16872058  0.70700639  0.57537780     0.00500
Br1492     Br  0.12195190  0.62806442  0.51765946    -0.03900
Br1493     Br  0.17761727  0.64822835  0.43703604     0.00600
Br1494     Br  0.10585446  0.69412397  0.50654743    -0.03200
Br1495     Br  0.16902452  0.70631032  0.51703353    -0.04100
Br1496     Br  0.11809090  0.63029792  0.57595193    -0.00100
C1497       C  0.21464882  0.52406279  0.15404744     0.01300
C1498       C  0.20310153  0.51143652  0.13812840     0.04200
C1499       C  0.20436875  0.48922343  0.13946753    -0.11900
C1500       C  0.21657524  0.47948391  0.15713822     0.23500
C1501       C  0.22758422  0.49201235  0.17347399    -0.12500
C1502       C  0.22671394  0.51424939  0.17190297     0.04900
C1503       C  0.21795605  0.45602884  0.15831401     0.27300
C1504       C  0.20285255  0.44441060  0.17121394    -0.13200
C1505       C  0.20349588  0.42211764  0.17127008     0.05400
C1506       C  0.21918810  0.41131724  0.15820335    -0.09100
C1507       C  0.23497350  0.42308418  0.14629428     0.06200
C1508       C  0.23417598  0.44535864  0.14615455    -0.13500
Br1509     Br  0.24397747  0.47855005  0.19787249    -0.05600
Br1510     Br  0.18611978  0.52433388  0.11379457     0.00100
Br1511     Br  0.18365161  0.40654441  0.19052235     0.00500
Br1512     Br  0.25492084  0.46143339  0.12868954    -0.03900
Br1513     Br  0.24123103  0.53115175  0.19502488     0.00600
Br1514     Br  0.18995083  0.47198465  0.11660471    -0.03200
Br1515     Br  0.18117405  0.45922562  0.18858707    -0.04100
Br1516     Br  0.25742093  0.40897983  0.12939213    -0.00100
C1517       C  0.20113956  0.59384928  0.07492927     0.01300
C1518       C  0.19052924  0.61178325  0.06573531     0.04200
C1519       C  0.18842910  0.61436695  0.04126860    -0.11900
C1520       C  0.19732929  0.59938767  0.02591707     0.23500
C1521       C  0.20712893  0.58110283  0.03500351    -0.12500
C1522       C  0.20895067  0.57825852  0.05939748     0.04900
C1523       C  0.19829886  0.60363524  0.00030522     0.27300
C1524       C  0.18195460  0.59677174  0.98534542    -0.13200
C1525       C  0.18430631  0.59850175  0.96081973     0.05400
C1526       C  0.20322867  0.60679045  0.95121276    -0.09100
C1527       C  0.21898110  0.61491561  0.96634169     0.06200
C1528       C  0.21650912  0.61329563  0.99079689    -0.13500
Br1529     Br  0.21863415  0.56024746  0.01378436    -0.05600
Br1530     Br  0.18061052  0.63392375  0.08624749     0.00100
Br1531     Br  0.16219170  0.58803246  0.94061081     0.00500
Br1532     Br  0.23853762  0.62339553  0.01146360    -0.03900
Br1533     Br  0.22206245  0.55274753  0.07125855     0.00600
Br1534     Br  0.17397747  0.63873339  0.02851787    -0.03200
Br1535     Br  0.15691556  0.58391616  0.99856168    -0.04100
Br1536     Br  0.24399060  0.62851933  0.95374678    -0.00100
C1537       C  0.18493029  0.60923518  0.20629345     0.01300
C1538       C  0.17938892  0.63071850  0.20923600     0.04200
C1539       C  0.17100171  0.63766708  0.23079074    -0.11900
C1540       C  0.16828930  0.62322905  0.24946095     0.23500
C1541       C  0.17327052  0.60171722  0.24631474    -0.12500
C1542       C  0.18178861  0.59475565  0.22488382     0.04900
C1543       C  0.16147689  0.63092876  0.27284013     0.27300
C1544       C  0.17682006  0.63782398  0.28904783    -0.13200
C1545       C  0.17048348  0.64605142  0.31085652     0.05400
C1546       C  0.14873527  0.64770692  0.31637649    -0.09100
C1547       C  0.13340644  0.64038817  0.30033879     0.06200
C1548       C  0.13980427  0.63169600  0.27874426    -0.13500
Br1549     Br  0.16847226  0.58187261  0.27153974    -0.05600
Br1550     Br  0.18501899  0.65104015  0.18462115     0.00100
Br1551     Br  0.19163356  0.65636700  0.33244503     0.00500
Br1552     Br  0.11903189  0.62072280  0.25717929    -0.03900
Br1553     Br  0.18910198  0.56527824  0.22107305     0.00600
Br1554     Br  0.16364069  0.66706779  0.23509238    -0.03200
Br1555     Br  0.20653962  0.63639203  0.28102159    -0.04100
Br1556     Br  0.10366492  0.64201696  0.30808873    -0.00100
C1557       C  0.30307128  0.91647786  0.38428858     0.01300
C1558       C  0.31342908  0.92792088  0.40218311     0.04200
C1559       C  0.31292625  0.95017518  0.40201103    -0.11900
C1560       C  0.30234027  0.96099922  0.38385977     0.23500
C1561       C  0.29162281  0.94964640  0.36631421    -0.12500
C1562       C  0.29200559  0.92742365  0.36646222     0.04900
C1563       C  0.30263663  0.98438117  0.38295135     0.27300
C1564       C  0.28548280  0.99596304  0.39206181    -0.13200
C1565       C  0.28528785  0.01814585  0.39028741     0.05400
C1566       C  0.30248237  0.02886333  0.37956072    -0.09100
C1567       C  0.31974970  0.01712766  0.37055454     0.06200
C1568       C  0.31976430  0.99492779  0.37224365    -0.13500
Br1569     Br  0.27630165  0.96471519  0.34215819    -0.05600
Br1570     Br  0.32745602  0.91329648  0.42762935     0.00100
Br1571     Br  0.26168023  0.03353018  0.40360412     0.00500
Br1572     Br  0.34314660  0.97877155  0.35967263    -0.03900
Br1573     Br  0.27819922  0.91220524  0.34144615     0.00600
Br1574     Br  0.32622012  0.96599697  0.42689393    -0.03200
Br1575     Br  0.26233175  0.98123410  0.40713720    -0.04100
Br1576     Br  0.34299811  0.03107252  0.35475390    -0.00100
C1577       C  0.32001128  0.85248007  0.58139369     0.01300
C1578       C  0.31547511  0.87015482  0.56694572     0.04200
C1579       C  0.31616792  0.86825422  0.54236850    -0.11900
C1580       C  0.32102809  0.84864493  0.53202619     0.23500
C1581       C  0.32715134  0.83145337  0.54628079    -0.12500
C1582       C  0.32707666  0.83345402  0.57092221     0.04900
C1583       C  0.31875293  0.84603090  0.50622724     0.27300
C1584       C  0.29861538  0.84202254  0.49660259    -0.13200
C1585       C  0.29592801  0.84118407  0.47209414     0.05400
C1586       C  0.31347835  0.84444745  0.45690287    -0.09100
C1587       C  0.33383669  0.84767382  0.46676621     0.06200
C1588       C  0.33637285  0.84853726  0.49132409    -0.13500
Br1589     Br  0.33484780  0.80494118  0.53188160    -0.05600
Br1590     Br  0.30896091  0.89731978  0.58065107     0.00100
Br1591     Br  0.26804936  0.83499693  0.45981393     0.00500
Br1592     Br  0.36385423  0.85406696  0.50481362    -0.03900
Br1593     Br  0.33590069  0.80971845  0.58993838     0.00600
Br1594     Br  0.31015051  0.89241525  0.52263148    -0.03200
Br1595     Br  0.27457009  0.83816074  0.51726239    -0.04100
Br1596     Br  0.35830778  0.85240311  0.44707133    -0.00100
C1597       C  0.17849054  0.72773158  0.36772382     0.01300
C1598       C  0.19242835  0.73096022  0.38673482     0.04200
C1599       C  0.20744227  0.74732950  0.38577626    -0.11900
C1600       C  0.20843363  0.76070873  0.36599427     0.23500
C1601       C  0.19474671  0.75736807  0.34685809    -0.12500
C1602       C  0.17990817  0.74074126  0.34761820     0.04900
C1603       C  0.22369470  0.77849332  0.36588325     0.27300
C1604       C  0.21918106  0.79681807  0.37897862    -0.13200
C1605       C  0.23508793  0.81200100  0.38272530     0.05400
C1606       C  0.25510000  0.80959020  0.37196305    -0.09100
C1607       C  0.25888770  0.79218858  0.35706845     0.06200
C1608       C  0.24348267  0.77628538  0.35470498    -0.13500
Br1609     Br  0.19621117  0.77578984  0.31984720    -0.05600
Br1610     Br  0.19030272  0.71384554  0.41481541     0.00100
Br1611     Br  0.22993419  0.83485391  0.40437993     0.00500
Br1612     Br  0.24980034  0.75103595  0.33705952    -0.03900
Br1613     Br  0.16231001  0.73515400  0.32067811     0.00600
Br1614     Br  0.22652891  0.75176195  0.41180195    -0.03200
Br1615     Br  0.19132490  0.80061424  0.39239460    -0.04100
Br1616     Br  0.28477495  0.79050032  0.33907237    -0.00100
C1617       C  0.55747073  0.75520363  0.16243184     0.01300
C1618       C  0.54508441  0.74076980  0.14942470     0.04200
C1619       C  0.52286585  0.74293820  0.14887005    -0.11900
C1620       C  0.51290489  0.75916566  0.16169205     0.23500
C1621       C  0.52515500  0.77328692  0.17504727    -0.12500
C1622       C  0.54737809  0.77140804  0.17534606     0.04900
C1623       C  0.48954628  0.76173716  0.16057732     0.27300
C1624       C  0.48051359  0.77526344  0.14364845    -0.13200
C1625       C  0.45833409  0.77724120  0.14198283     0.05400
C1626       C  0.44504987  0.76544270  0.15715010    -0.09100
C1627       C  0.45423045  0.75254894  0.17476265     0.06200
C1628       C  0.47642283  0.75065012  0.17636281    -0.13500
Br1629     Br  0.51135813  0.79555514  0.19242962    -0.05600
Br1630     Br  0.55837667  0.71886214  0.13099388     0.00100
Br1631     Br  0.44645719  0.79559872  0.11823826     0.00500
Br1632     Br  0.48903329  0.73290895  0.20020944    -0.03900
Br1633     Br  0.56383246  0.79092453  0.19392607     0.00600
Br1634     Br  0.50596824  0.72435770  0.12964541    -0.03200
Br1635     Br  0.49873227  0.79080425  0.12250409    -0.04100
Br1636     Br  0.43663110  0.73847203  0.19777565    -0.00100
C1637       C  0.37328555  0.77977526  0.07858393     0.01300
C1638       C  0.37872475  0.79956572  0.06858112     0.04200
C1639       C  0.37894436  0.80216102  0.04396411    -0.11900
C1640       C  0.37444834  0.78489488  0.02921268     0.23500
C1641       C  0.36777177  0.76556631  0.03912777    -0.12500
C1642       C  0.36672315  0.76315967  0.06367461     0.04900
C1643       C  0.37809564  0.78639321  0.00341443     0.27300
C1644       C  0.36107428  0.79011372  0.98792595    -0.13200
C1645       C  0.36410471  0.78834912  0.96346912     0.05400
C1646       C  0.38434881  0.78337841  0.95439587    -0.09100
C1647       C  0.40169087  0.78131027  0.96988281     0.06200
C1648       C  0.39850914  0.78248165  0.99429521    -0.13500
Br1649     Br  0.36057004  0.74216749  0.01891555    -0.05600
Br1650     Br  0.38721816  0.82284340  0.08823674     0.00100
Br1651     Br  0.34012975  0.79102118  0.94268801     0.00500
Br1652     Br  0.42199395  0.77784917  0.01538668    -0.03900
Br1653     Br  0.35514752  0.73736272  0.07666022     0.00600
Br1654     Br  0.38566341  0.82925328  0.03020516    -0.03200
Br1655     Br  0.33350068  0.79693861  0.00042976    -0.04100
Br1656     Br  0.43000519  0.77735571  0.95763549    -0.00100
C1657       C  0.33782664  0.71684759  0.15371496     0.01300
C1658       C  0.31829024  0.71826645  0.16579498     0.04200
C1659       C  0.30380289  0.70134917  0.16502140    -0.11900
C1660       C  0.30886122  0.68287616  0.15245725     0.23500
C1661       C  0.32834246  0.68132467  0.14054467    -0.12500
C1662       C  0.34277495  0.69826959  0.14105843     0.04900
C1663       C  0.29334123  0.66534986  0.15100684     0.27300
C1664       C  0.29231799  0.64994975  0.16891070    -0.13200
C1665       C  0.27718680  0.63361979  0.16770379     0.05400
C1666       C  0.26322289  0.63260431  0.14841271    -0.09100
C1667       C  0.26480735  0.64761152  0.13012131     0.06200
C1668       C  0.27966547  0.66408881  0.13156451    -0.13500
Br1669     Br  0.33483664  0.65609140  0.12290414    -0.05600
Br1670     Br  0.31147621  0.74296218  0.18415631     0.00100
Br1671     Br  0.27490903  0.61346067  0.19311971     0.00500
Br1672     Br  0.28119495  0.68514044  0.10701642    -0.03900
Br1673     Br  0.36858366  0.69632042  0.12292221     0.00600
Br1674     Br  0.27673245  0.70352274  0.18071581    -0.03200
Br1675     Br  0.31149848  0.65152772  0.19519748    -0.04100
Br1676     Br  0.24728664  0.64507131  0.10247491    -0.00100
C1677       C  0.36577505  0.80090659  0.21040848     0.01300
C1678       C  0.38214223  0.80508857  0.22663479     0.04200
C1679       C  0.37735829  0.81409931  0.24859657    -0.11900
C1680       C  0.35613894  0.81830623  0.25480862     0.23500
C1681       C  0.33987597  0.81489089  0.23826232    -0.12500
C1682       C  0.34473371  0.80659436  0.21595718     0.04900
C1683       C  0.35080997  0.82526967  0.27908266     0.27300
C1684       C  0.34984048  0.81026929  0.29744036    -0.13200
C1685       C  0.34389331  0.81653379  0.32023435     0.05400
C1686       C  0.33767605  0.83765783  0.32450731    -0.09100
C1687       C  0.33967434  0.85285477  0.30638274     0.06200
C1688       C  0.34646057  0.84670836  0.28383092    -0.13500
Br1689     Br  0.31079624  0.82073594  0.24656752    -0.05600
Br1690     Br  0.41124860  0.79889451  0.21861128     0.00100
Br1691     Br  0.34359880  0.79582392  0.34519767     0.00500
Br1692     Br  0.34954881  0.86753668  0.25924440    -0.03900
Br1693     Br  0.32234409  0.80197496  0.19352636     0.00600
Br1694     Br  0.39979020  0.82060077  0.27038990    -0.03200
Br1695     Br  0.35558978  0.78084460  0.29098045    -0.04100
Br1696     Br  0.33385722  0.88231217  0.31265457    -0.00100
loop_ 
_geom_bond_atom_site_label_1 
_geom_bond_atom_site_label_2 
_geom_bond_distance 
_geom_bond_site_symmetry_2 
_ccdc_geom_bond_type 
In1           O3   2.238       .  S
In1           O4   2.264       .  S
In1          O12   2.245       .  S
In1           O6   2.239       .  S
In1           O8   2.243       .  S
In1           O9   2.271       .  S
In1          O10   2.245       .  S
In1          O13   2.241       .  S
C2            O8   1.261       .  A
C2           O10   1.260       .  A
C2         C1657   1.480       .  S
O3           C11   1.259       .  A
O4           C11   1.264       .  A
C5           O12   1.262       .  A
C5            O6   1.261       .  A
C5         C1626   1.482       .  S
C7            O9   1.264       .  A
C7           O13   1.259       .  A
C7         C1637   1.490       .  S
C11        C1677   1.482       .  S
In14         O16   2.232       .  S
In14         O17   2.266       .  S
In14         O25   2.236       .  S
In14         O19   2.227       .  S
In14         O21   2.242       .  S
In14         O22   2.264       .  S
In14         O23   2.233       .  S
In14         O26   2.234       .  S
C15          O21   1.261       .  A
C15          O23   1.261       .  A
C15        C1606   1.474       .  S
O16          C24   1.260       .  A
O17          C24   1.265       .  A
C18          O25   1.263       .  A
C18          O19   1.262       .  A
C18        C1557   1.474       .  S
C20          O22   1.265       .  A
C20          O26   1.258       .  A
C20        C1586   1.491       .  S
C24        C1686   1.485       .  S
In27         O29   2.219       .  S
In27         O30   2.246       .  S
In27         O38   2.224       .  S
In27         O32   2.253       .  S
In27         O34   2.261       .  S
In27         O35   2.242       .  S
In27         O36   2.231       .  S
In27         O39   2.242       .  S
C28          O34   1.264       .  A
C28          O36   1.260       .  A
C28        C1517   1.484       .  S
O29          C37   1.260       .  A
O30          C37   1.263       .  A
C31          O38   1.260       .  A
C31          O32   1.264       .  A
C31        C1537   1.476       .  S
C33          O35   1.262       .  A
C33          O39   1.261       .  A
C33        C1497   1.480       .  S
C37        C1666   1.472       .  S
In40         O42   2.226       .  S
In40         O43   2.243       .  S
In40         O51   2.233       .  S
In40         O45   2.250       .  S
In40         O47   2.256       .  S
In40         O48   2.237       .  S
In40         O49   2.219       .  S
In40         O52   2.244       .  S
C41          O47   1.266       .  A
C41          O49   1.259       .  A
C41        C1477   1.479       .  S
O42          C50   1.261       .  A
O43          C50   1.264       .  A
C44          O51   1.260       .  A
C44          O45   1.264       .  A
C44        C1546   1.475       .  S
C46          O48   1.263       .  A
C46          O52   1.262       .  A
C46        C1466   1.481       .  S
C50        C1597   1.473       .  S
In53         O55   2.233       .  S
In53         O56   2.243       .  S
In53         O64   2.229       .  S
In53         O58   2.259       .  S
In53         O60   2.268       .  S
In53         O61   2.252       .  S
In53         O62   2.231       .  S
In53         O65   2.241       .  S
C54          O60   1.264       .  A
C54          O62   1.259       .  A
C54        C1646   1.483       .  S
O55          C63   1.262       .  A
O56          C63   1.264       .  A
C57          O64   1.257       .  A
C57          O58   1.266       .  A
C57        C1437   1.494       .  S
C59          O61   1.262       .  A
C59          O65   1.260       .  A
C59        C1406   1.484       .  S
C63        C1417   1.473       .  S
In66         O68   2.240       .  S
In66         O69   2.248       .  S
In66         O77   2.237       .  S
In66         O71   2.262       .  S
In66         O73   2.265       .  S
In66         O74   2.245       .  S
In66         O75   2.230       .  S
In66         O78   2.246       .  S
C67          O73   1.264       .  A
C67          O75   1.260       .  A
C67        C1577   1.486       .  S
O68          C76   1.261       .  A
O69          C76   1.263       .  A
C70          O77   1.259       .  A
C70          O71   1.263       .  A
C70        C1446   1.483       .  S
C72          O74   1.262       .  A
C72          O78   1.261       .  A
C72        C1357   1.481       .  S
C76        C1377   1.479       .  S
In79         O81   2.231       .  S
In79         O82   2.254       .  S
In79         O90   2.244       .  S
In79         O84   2.247       .  S
In79         O86   2.250       .  S
In79         O87   2.264       .  S
In79         O88   2.227       .  S
In79         O91   2.219       .  S
C80          O86   1.263       .  A
C80          O88   1.259       .  A
C80        C1426   1.488       .  S
O81          C89   1.262       .  A
O82          C89   1.266       .  A
C83          O90   1.262       .  A
C83          O84   1.264       .  A
C83        C1317   1.487       .  S
C85          O87   1.266       .  A
C85          O91   1.258       .  A
C85        C1526   1.481       .  S
C89        C1346   1.477       .  S
In92         O94   2.227       .  S
In92         O95   2.273       .  S
In92        O103   2.247       .  S
In92         O97   2.246       .  S
In92         O99   2.241       .  S
In92        O100   2.268       .  S
In92        O101   2.236       .  S
In92        O104   2.226       .  S
C93          O99   1.263       .  A
C93         O101   1.262       .  A
C93        C1386   1.482       .  S
O94         C102   1.259       .  A
O95         C102   1.266       .  A
C96         O103   1.262       .  A
C96          O97   1.262       .  A
C96        C1306   1.486       .  S
C98         O100   1.266       .  A
C98         O104   1.259       .  A
C98        C1486   1.482       .  S
C102       C1337   1.485       .  S
In105       O107   2.240       .  S
In105       O108   2.275       .  S
In105       O116   2.241       .  S
In105       O110   2.235       .  S
In105       O112   2.233       .  S
In105       O113   2.287       .  S
In105       O114   2.233       .  S
In105       O117   2.230       .  S
C106        O112   1.263       .  A
C106        O114   1.262       .  A
C106       C1257   1.478       .  S
O107        C115   1.259       .  A
O108        C115   1.267       .  A
C109        O116   1.263       .  A
C109        O110   1.262       .  A
C109       C1226   1.481       .  S
C111        O113   1.268       .  A
C111        O117   1.259       .  A
C111       C1237   1.495       .  S
C115       C1277   1.494       .  S
In118       O120   2.241       .  S
In118       O121   2.272       .  S
In118       O129   2.240       .  S
In118       O123   2.258       .  S
In118       O125   2.251       .  S
In118       O126   2.262       .  S
In118       O127   2.229       .  S
In118       O130   2.226       .  S
C119        O125   1.263       .  A
C119        O127   1.260       .  A
C119       C1197   1.483       .  S
O120        C128   1.259       .  A
O121        C128   1.263       .  A
C122        O129   1.262       .  A
C122        O123   1.263       .  A
C122       C1457   1.492       .  S
C124        O126   1.266       .  A
C124        O130   1.261       .  A
C124       C1177   1.484       .  S
C128       C1286   1.491       .  S
In131       O133   2.225       .  S
In131       O134   2.255       .  S
In131       O142   2.248       .  S
In131       O136   2.256       .  S
In131       O138   2.253       .  S
In131       O139   2.258       .  S
In131       O140   2.236       .  S
In131       O143   2.228       .  S
C132        O138   1.264       .  A
C132        O140   1.260       .  A
C132       C1137   1.486       .  S
O133        C141   1.261       .  A
O134        C141   1.264       .  A
C135        O142   1.260       .  A
C135        O136   1.262       .  A
C135       C1166   1.491       .  S
C137        O139   1.262       .  A
C137        O143   1.258       .  A
C137       C1617   1.480       .  S
C141       C1266   1.476       .  S
In144       O146   2.248       .  S
In144       O147   2.240       .  S
In144       O155   2.238       .  S
In144       O149   2.281       .  S
In144       O151   2.282       .  S
In144       O152   2.233       .  S
In144       O153   2.226       .  S
In144       O156   2.254       .  S
C145        O151   1.266       .  A
C145        O153   1.258       .  A
C145       C1117   1.486       .  S
O146        C154   1.263       .  A
O147        C154   1.261       .  A
C148        O155   1.257       .  A
C148        O149   1.264       .  A
C148       C1157   1.481       .  S
C150        O152   1.259       .  A
C150        O156   1.262       .  A
C150       C1106   1.482       .  S
C154       C1206   1.482       .  S
In157       O159   2.238       .  S
In157       O160   2.271       .  S
In157       O168   2.244       .  S
In157       O162   2.231       .  S
In157       O164   2.238       .  S
In157       O165   2.276       .  S
In157       O166   2.236       .  S
In157       O169   2.227       .  S
C158        O164   1.262       .  A
C158        O166   1.260       .  A
C158       C1057   1.479       .  S
O159        C167   1.260       .  A
O160        C167   1.266       .  A
C161        O168   1.264       .  A
C161        O162   1.263       .  A
C161       C1397   1.480       .  S
C163        O165   1.267       .  A
C163        O169   1.257       .  A
C163       C1146   1.491       .  S
C167       C1077   1.483       .  S
In170       O172   2.232       .  S
In170       O173   2.273       .  S
In170       O181   2.232       .  S
In170       O175   2.241       .  S
In170       O177   2.240       .  S
In170       O178   2.268       .  S
In170       O179   2.224       .  S
In170       O182   2.243       .  S
C171        O177   1.265       .  A
C171        O179   1.262       .  A
C171       C1037   1.475       .  S
O172        C180   1.260       .  A
O173        C180   1.268       .  A
C174        O181   1.262       .  A
C174        O175   1.264       .  A
C174       C1017   1.479       .  S
C176        O178   1.268       .  A
C176        O182   1.260       .  A
C176       C1126   1.495       .  S
C180       C1086   1.493       .  S
In183       O185   2.224       .  S
In183       O186   2.246       .  S
In183       O194   2.239       .  S
In183       O188   2.260       .  S
In183       O190   2.272       .  S
In183       O191   2.237       .  S
In183       O192   2.236       .  S
In183       O195   2.235       .  S
C184        O190   1.265       .  A
C184        O192   1.260       .  A
C184       C1246   1.488       .  S
O185        C193   1.260       .  A
O186        C193   1.262       .  A
C187        O194   1.258       .  A
C187        O188   1.264       .  A
C187        C997   1.491       .  S
C189        O191   1.262       .  A
C189        O195   1.262       .  A
C189        C986   1.472       .  S
C193       C1066   1.476       .  S
In196       O198   2.241       .  S
In196       O199   2.242       .  S
In196       O207   2.221       .  S
In196       O201   2.266       .  S
In196       O203   2.272       .  S
In196       O204   2.239       .  S
In196       O205   2.222       .  S
In196       O208   2.245       .  S
C197        O203   1.266       .  A
C197        O205   1.260       .  A
C197       C1186   1.483       .  S
O198        C206   1.260       .  A
O199        C206   1.262       .  A
C200        O207   1.257       .  A
C200        O201   1.265       .  A
C200       C1006   1.481       .  S
C202        O204   1.261       .  A
C202        O208   1.264       .  A
C202       C1297   1.482       .  S
C206       C1046   1.485       .  S
In209       O211   2.226       .  S
In209       O212   2.237       .  S
In209       O220   2.233       .  S
In209       O214   2.269       .  S
In209       O216   2.277       .  S
In209       O217   2.227       .  S
In209       O218   2.219       .  S
In209       O221   2.235       .  S
C210        O216   1.267       .  A
C210        O218   1.259       .  A
C210        C917   1.486       .  S
O211        C219   1.262       .  A
O212        C219   1.261       .  A
C213        O220   1.258       .  A
C213        O214   1.265       .  A
C213        C957   1.484       .  S
C215        O217   1.261       .  A
C215        O221   1.262       .  A
C215       C1566   1.478       .  S
C219        C937   1.470       .  S
In222       O224   2.235       .  S
In222       O225   2.259       .  S
In222       O233   2.238       .  S
In222       O227   2.262       .  S
In222       O229   2.271       .  S
In222       O230   2.256       .  S
In222       O231   2.236       .  S
In222       O234   2.245       .  S
C223        O229   1.265       .  A
C223        O231   1.260       .  A
C223        C877   1.490       .  S
O224        C232   1.260       .  A
O225        C232   1.265       .  A
C226        O233   1.260       .  A
C226        O227   1.264       .  A
C226        C966   1.483       .  S
C228        O230   1.264       .  A
C228        O234   1.262       .  A
C228        C857   1.486       .  S
C232        C897   1.484       .  S
In235       O237   2.240       .  S
In235       O238   2.267       .  S
In235       O246   2.237       .  S
In235       O240   2.234       .  S
In235       O242   2.244       .  S
In235       O243   2.267       .  S
In235       O244   2.228       .  S
In235       O247   2.227       .  S
C236        O242   1.262       .  A
C236        O244   1.260       .  A
C236        C946   1.476       .  S
O237        C245   1.259       .  A
O238        C245   1.265       .  A
C239        O246   1.263       .  A
C239        O240   1.263       .  A
C239        C806   1.478       .  S
C241        O243   1.266       .  A
C241        O247   1.259       .  A
C241        C817   1.478       .  S
C245        C837   1.491       .  S
In248       O250   2.230       .  S
In248       O251   2.270       .  S
In248       O259   2.245       .  S
In248       O253   2.244       .  S
In248       O255   2.251       .  S
In248       O256   2.279       .  S
In248       O257   2.241       .  S
In248       O260   2.234       .  S
C249        O255   1.263       .  A
C249        O257   1.261       .  A
C249        C906   1.484       .  S
O250        C258   1.258       .  A
O251        C258   1.265       .  A
C252        O259   1.263       .  A
C252        O253   1.263       .  A
C252       C1506   1.484       .  S
C254        O256   1.266       .  A
C254        O260   1.260       .  A
C254        C777   1.491       .  S
C258        C846   1.491       .  S
In261       O263   2.240       .  S
In261       O264   2.261       .  S
In261       O272   2.243       .  S
In261       O266   2.244       .  S
In261       O268   2.247       .  S
In261       O269   2.279       .  S
In261       O270   2.233       .  S
In261       O273   2.235       .  S
C262        O268   1.261       .  A
C262        O270   1.260       .  A
C262        C737   1.483       .  S
O263        C271   1.260       .  A
O264        C271   1.264       .  A
C265        O272   1.262       .  A
C265        O266   1.260       .  A
C265        C717   1.477       .  S
C267        O269   1.264       .  A
C267        O273   1.258       .  A
C267        C886   1.491       .  S
C271        C766   1.486       .  S
In274       O276   2.237       .  S
In274       O277   2.253       .  S
In274       O285   2.246       .  S
In274       O279   2.249       .  S
In274       O281   2.261       .  S
In274       O282   2.271       .  S
In274       O283   2.239       .  S
In274       O286   2.248       .  S
C275        O281   1.263       .  A
C275        O283   1.259       .  A
C275        C697   1.485       .  S
O276        C284   1.260       .  A
O277        C284   1.264       .  A
C278        O285   1.262       .  A
C278        O279   1.263       .  A
C278       C1366   1.485       .  S
C280        O282   1.262       .  A
C280        O286   1.260       .  A
C280        C926   1.492       .  S
C284        C757   1.478       .  S
In287       O289   2.245       .  S
In287       O290   2.257       .  S
In287       O298   2.239       .  S
In287       O292   2.264       .  S
In287       O294   2.263       .  S
In287       O295   2.252       .  S
In287       O296   2.236       .  S
In287       O299   2.253       .  S
C288        O294   1.263       .  A
C288        O296   1.260       .  A
C288        C786   1.482       .  S
O289        C297   1.261       .  A
O290        C297   1.262       .  A
C291        O298   1.260       .  A
C291        O292   1.263       .  A
C291        C677   1.486       .  S
C293        O295   1.262       .  A
C293        O299   1.260       .  A
C293       C1326   1.487       .  S
C297        C746   1.484       .  S
In300       O302   2.252       .  S
In300       O303   2.249       .  S
In300       O311   2.234       .  S
In300       O305   2.264       .  S
In300       O307   2.273       .  S
In300       O308   2.222       .  S
In300       O309   2.233       .  S
In300       O312   2.248       .  S
C301        O307   1.265       .  A
C301        O309   1.259       .  A
C301        C826   1.491       .  S
O302        C310   1.261       .  A
O303        C310   1.259       .  A
C304        O311   1.258       .  A
C304        O305   1.263       .  A
C304        C686   1.481       .  S
C306        O308   1.260       .  A
C306        O312   1.263       .  A
C306        C666   1.478       .  S
C310        C706   1.484       .  S
In313       O315   2.246       .  S
In313       O316   2.255       .  S
In313       O324   2.220       .  S
In313       O318   2.249       .  S
In313       O320   2.265       .  S
In313       O321   2.241       .  S
In313       O322   2.224       .  S
In313       O325   2.242       .  S
C314        O320   1.263       .  A
C314        O322   1.259       .  A
C314        C606   1.477       .  S
O315        C323   1.260       .  A
O316        C323   1.263       .  A
C317        O324   1.260       .  A
C317        O318   1.265       .  A
C317        C637   1.480       .  S
C319        O321   1.263       .  A
C319        O325   1.262       .  A
C319       C1217   1.475       .  S
C323        C626   1.484       .  S
In326       O328   2.235       .  S
In326       O329   2.245       .  S
In326       O337   2.237       .  S
In326       O331   2.252       .  S
In326       O333   2.267       .  S
In326       O334   2.235       .  S
In326       O335   2.221       .  S
In326       O338   2.246       .  S
C327        O333   1.263       .  A
C327        O335   1.258       .  A
C327        C557   1.480       .  S
O328        C336   1.259       .  A
O329        C336   1.261       .  A
C330        O337   1.258       .  A
C330        O331   1.261       .  A
C330        C646   1.483       .  S
C332        O334   1.261       .  A
C332        O338   1.263       .  A
C332        C797   1.478       .  S
C336        C586   1.475       .  S
In339       O341   2.236       .  S
In339       O342   2.277       .  S
In339       O350   2.236       .  S
In339       O344   2.245       .  S
In339       O346   2.251       .  S
In339       O347   2.274       .  S
In339       O348   2.229       .  S
In339       O351   2.214       .  S
C340        O346   1.264       .  A
C340        O348   1.261       .  A
C340        C617   1.480       .  S
O341        C349   1.260       .  A
O342        C349   1.265       .  A
C343        O350   1.263       .  A
C343        O344   1.265       .  A
C343        C866   1.486       .  S
C345        O347   1.269       .  A
C345        O351   1.259       .  A
C345        C517   1.483       .  S
C349        C537   1.504       .  S
In352       O354   2.236       .  S
In352       O355   2.267       .  S
In352       O363   2.229       .  S
In352       O357   2.244       .  S
In352       O359   2.237       .  S
In352       O360   2.280       .  S
In352       O361   2.231       .  S
In352       O364   2.223       .  S
C353        O359   1.264       .  A
C353        O361   1.262       .  A
C353        C577   1.482       .  S
O354        C362   1.261       .  A
O355        C362   1.267       .  A
C356        O363   1.263       .  A
C356        O357   1.263       .  A
C356       C1097   1.478       .  S
C358        O360   1.268       .  A
C358        O364   1.259       .  A
C358        C497   1.492       .  S
C362        C546   1.485       .  S
In365       O367   2.228       .  S
In365       O368   2.262       .  S
In365       O376   2.235       .  S
In365       O370   2.232       .  S
In365       O372   2.237       .  S
In365       O373   2.266       .  S
In365       O374   2.236       .  S
In365       O377   2.228       .  S
C366        O372   1.262       .  A
C366        O374   1.263       .  A
C366        C457   1.475       .  S
O367        C375   1.258       .  A
O368        C375   1.265       .  A
C369        O376   1.260       .  A
C369        O370   1.261       .  A
C369        C977   1.476       .  S
C371        O373   1.265       .  A
C371        O377   1.259       .  A
C371        C597   1.488       .  S
C375        C477   1.485       .  S
In378       O380   2.229       .  S
In378       O381   2.257       .  S
In378       O389   2.245       .  S
In378       O383   2.232       .  S
In378       O385   2.242       .  S
In378       O386   2.265       .  S
In378       O387   2.228       .  S
In378       O390   2.220       .  S
C379        O385   1.262       .  A
C379        O387   1.261       .  A
C379        C437   1.473       .  S
O380        C388   1.258       .  A
O381        C388   1.264       .  A
C382        O389   1.262       .  A
C382        O383   1.262       .  A
C382        C657   1.477       .  S
C384        O386   1.264       .  A
C384        O390   1.258       .  A
C384        C566   1.481       .  S
C388        C486   1.474       .  S
In391       O393   2.234       .  S
In391       O394   2.257       .  S
In391       O402   2.240       .  S
In391       O396   2.254       .  S
In391       O398   2.258       .  S
In391       O399   2.259       .  S
In391       O400   2.221       .  S
In391       O403   2.246       .  S
C392        O398   1.265       .  A
C392        O400   1.257       .  A
C392        C466   1.483       .  S
O393        C401   1.260       .  A
O394        C401   1.265       .  A
C395        O402   1.262       .  A
C395        O396   1.264       .  A
C395        C726   1.489       .  S
C397        O399   1.263       .  A
C397        O403   1.261       .  A
C397        C417   1.480       .  S
C401        C526   1.487       .  S
In404       O406   2.237       .  S
In404       O407   2.240       .  S
In404       O415   2.233       .  S
In404       O409   2.264       .  S
In404       O411   2.278       .  S
In404       O412   2.247       .  S
In404       O413   2.242       .  S
In404       O416   2.235       .  S
C405        O411   1.265       .  A
C405        O413   1.259       .  A
C405        C506   1.493       .  S
O406        C414   1.262       .  A
O407        C414   1.262       .  A
C408        O415   1.260       .  A
C408        O409   1.266       .  A
C408        C426   1.486       .  S
C410        O412   1.262       .  A
C410        O416   1.261       .  A
C410       C1026   1.482       .  S
C414        C446   1.475       .  S
C417        C418   1.411       .  A
C417        C422   1.408       .  A
C418        C419   1.409       .  A
C418       Br430   1.930       .  S
C419        C420   1.410       .  A
C419       Br434   1.930       .  S
C420        C423   1.489       .  S
C420        C421   1.409       .  A
C421        C422   1.409       .  A
C421       Br429   1.928       .  S
C422       Br433   1.923       .  S
C423        C424   1.410       .  A
C423        C428   1.407       .  A
C424        C425   1.411       .  A
C424       Br435   1.930       .  S
C425        C426   1.414       .  A
C425       Br431   1.930       .  S
C426        C427   1.415       .  A
C427        C428   1.409       .  A
C427       Br436   1.931       .  S
C428       Br432   1.930       .  S
C437        C438   1.411       .  A
C437        C442   1.410       .  A
C438        C439   1.408       .  A
C438       Br450   1.931       .  S
C439        C440   1.409       .  A
C439       Br454   1.929       .  S
C440        C443   1.481       .  S
C440        C441   1.408       .  A
C441        C442   1.405       .  A
C441       Br449   1.931       .  S
C442       Br453   1.932       .  S
C443        C444   1.408       .  A
C443        C448   1.408       .  A
C444        C445   1.406       .  A
C444       Br455   1.929       .  S
C445        C446   1.411       .  A
C445       Br451   1.930       .  S
C446        C447   1.412       .  A
C447        C448   1.407       .  A
C447       Br456   1.930       .  S
C448       Br452   1.931       .  S
C457        C458   1.412       .  A
C457        C462   1.411       .  A
C458        C459   1.407       .  A
C458       Br470   1.931       .  S
C459        C460   1.408       .  A
C459       Br474   1.930       .  S
C460        C463   1.482       .  S
C460        C461   1.408       .  A
C461        C462   1.406       .  A
C461       Br469   1.930       .  S
C462       Br473   1.931       .  S
C463        C464   1.406       .  A
C463        C468   1.407       .  A
C464        C465   1.405       .  A
C464       Br475   1.933       .  S
C465        C466   1.418       .  A
C465       Br471   1.934       .  S
C466        C467   1.415       .  A
C467        C468   1.408       .  A
C467       Br476   1.931       .  S
C468       Br472   1.930       .  S
C477        C478   1.415       .  A
C477        C482   1.416       .  A
C478        C479   1.410       .  A
C478       Br490   1.931       .  S
C479        C480   1.408       .  A
C479       Br494   1.930       .  S
C480        C483   1.485       .  S
C480        C481   1.406       .  A
C481        C482   1.407       .  A
C481       Br489   1.931       .  S
C482       Br493   1.932       .  S
C483        C484   1.409       .  A
C483        C488   1.410       .  A
C484        C485   1.407       .  A
C484       Br495   1.928       .  S
C485        C486   1.410       .  A
C485       Br491   1.931       .  S
C486        C487   1.409       .  A
C487        C488   1.408       .  A
C487       Br496   1.930       .  S
C488       Br492   1.930       .  S
C497        C498   1.416       .  A
C497        C502   1.416       .  A
C498        C499   1.408       .  A
C498       Br510   1.933       .  S
C499        C500   1.408       .  A
C499       Br514   1.931       .  S
C500        C503   1.494       .  S
C500        C501   1.410       .  A
C501        C502   1.415       .  A
C501       Br509   1.929       .  S
C502       Br513   1.930       .  S
C503        C504   1.409       .  A
C503        C508   1.409       .  A
C504        C505   1.411       .  A
C504       Br515   1.931       .  S
C505        C506   1.417       .  A
C505       Br511   1.932       .  S
C506        C507   1.415       .  A
C507        C508   1.413       .  A
C507       Br516   1.928       .  S
C508       Br512   1.929       .  S
C517        C518   1.413       .  A
C517        C522   1.414       .  A
C518        C519   1.412       .  A
C518       Br530   1.928       .  S
C519        C520   1.410       .  A
C519       Br534   1.928       .  S
C520        C523   1.487   1_554  S
C520        C521   1.407       .  A
C521        C522   1.405       .  A
C521       Br529   1.933       .  S
C522       Br533   1.931       .  S
C523        C524   1.407       .  A
C523        C528   1.408       .  A
C524        C525   1.408       .  A
C524       Br535   1.932   1_556  S
C525        C526   1.417       .  A
C525       Br531   1.931       .  S
C526        C527   1.415       .  A
C527        C528   1.409       .  A
C527       Br536   1.931       .  S
C528       Br532   1.929       .  S
C537        C538   1.422       .  A
C537        C542   1.424       .  A
C538        C539   1.415       .  A
C538       Br550   1.931       .  S
C539        C540   1.408       .  A
C539       Br554   1.931       .  S
C540        C543   1.496       .  S
C540        C541   1.407       .  A
C541        C542   1.411       .  A
C541       Br549   1.934       .  S
C542       Br553   1.936       .  S
C543        C544   1.413       .  A
C543        C548   1.410       .  A
C544        C545   1.413       .  A
C544       Br555   1.927       .  S
C545        C546   1.410       .  A
C545       Br551   1.928       .  S
C546        C547   1.413       .  A
C547        C548   1.409       .  A
C547       Br556   1.931       .  S
C548       Br552   1.932       .  S
C557        C558   1.413       .  A
C557        C562   1.413       .  A
C558        C559   1.409       .  A
C558       Br570   1.929       .  S
C559        C560   1.409       .  A
C559       Br574   1.930       .  S
C560        C563   1.484       .  S
C560        C561   1.407       .  A
C561        C562   1.405       .  A
C561       Br569   1.930       .  S
C562       Br573   1.933       .  S
C563        C564   1.408       .  A
C563        C568   1.409       .  A
C564        C565   1.404       .  A
C564       Br575   1.934       .  S
C565        C566   1.414       .  A
C565       Br571   1.933       .  S
C566        C567   1.415       .  A
C567        C568   1.411       .  A
C567       Br576   1.930       .  S
C568       Br572   1.929       .  S
C577        C578   1.416       .  A
C577        C582   1.416       .  A
C578        C579   1.406       .  A
C578       Br590   1.932       .  S
C579        C580   1.407       .  A
C579       Br594   1.933       .  S
C580        C583   1.480       .  S
C580        C581   1.406       .  A
C581        C582   1.407       .  A
C581       Br589   1.930       .  S
C582       Br593   1.932       .  S
C583        C584   1.408       .  A
C583        C588   1.408       .  A
C584        C585   1.406       .  A
C584       Br595   1.930       .  S
C585        C586   1.412       .  A
C585       Br591   1.931       .  S
C586        C587   1.412       .  A
C587        C588   1.405       .  A
C587       Br596   1.931       .  S
C588       Br592   1.931       .  S
C597        C598   1.415       .  A
C597        C602   1.417       .  A
C598        C599   1.412       .  A
C598       Br610   1.929       .  S
C599        C600   1.408       .  A
C599       Br614   1.928       .  S
C600        C603   1.486   1_556  S
C600        C601   1.407       .  A
C601        C602   1.405       .  A
C601       Br609   1.934   1_556  S
C602       Br613   1.932       .  S
C603        C604   1.408       .  A
C603        C608   1.410       .  A
C604        C605   1.404       .  A
C604       Br615   1.931       .  S
C605        C606   1.410       .  A
C605       Br611   1.932       .  S
C606        C607   1.411       .  A
C607        C608   1.412       .  A
C607       Br616   1.929       .  S
C608       Br612   1.928       .  S
C617        C618   1.412       .  A
C617        C622   1.414       .  A
C618        C619   1.409       .  A
C618       Br630   1.930       .  S
C619        C620   1.409       .  A
C619       Br634   1.929       .  S
C620        C623   1.486       .  S
C620        C621   1.408       .  A
C621        C622   1.406       .  A
C621       Br629   1.931       .  S
C622       Br633   1.933       .  S
C623        C624   1.409       .  A
C623        C628   1.407       .  A
C624        C625   1.410       .  A
C624       Br635   1.929       .  S
C625        C626   1.414       .  A
C625       Br631   1.931       .  S
C626        C627   1.414       .  A
C627        C628   1.407       .  A
C627       Br636   1.929       .  S
C628       Br632   1.932       .  S
C637        C638   1.416       .  A
C637        C642   1.414       .  A
C638        C639   1.405       .  A
C638       Br650   1.933       .  S
C639        C640   1.406       .  A
C639       Br654   1.932       .  S
C640        C643   1.481       .  S
C640        C641   1.407       .  A
C641        C642   1.408       .  A
C641       Br649   1.930       .  S
C642       Br653   1.931       .  S
C643        C644   1.407       .  A
C643        C648   1.405       .  A
C644        C645   1.409       .  A
C644       Br655   1.931       .  S
C645        C646   1.415       .  A
C645       Br651   1.930       .  S
C646        C647   1.418       .  A
C647        C648   1.405       .  A
C647       Br656   1.934       .  S
C648       Br652   1.933       .  S
C657        C658   1.413       .  A
C657        C662   1.413       .  A
C658        C659   1.406       .  A
C658       Br670   1.932       .  S
C659        C660   1.407       .  A
C659       Br674   1.930       .  S
C660        C663   1.481   1_655  S
C660        C661   1.408       .  A
C661        C662   1.407       .  A
C661       Br669   1.932   1_655  S
C662       Br673   1.930       .  S
C663        C664   1.408       .  A
C663        C668   1.407       .  A
C664        C665   1.407       .  A
C664       Br675   1.931       .  S
C665        C666   1.413       .  A
C665       Br671   1.929       .  S
C666        C667   1.414       .  A
C667        C668   1.405       .  A
C667       Br676   1.935       .  S
C668       Br672   1.930       .  S
C677        C678   1.414       .  A
C677        C682   1.414       .  A
C678        C679   1.407       .  A
C678       Br690   1.928       .  S
C679        C680   1.407       .  A
C679       Br694   1.931       .  S
C680        C683   1.488       .  S
C680        C681   1.411       .  A
C681        C682   1.411       .  A
C681       Br689   1.932       .  S
C682       Br693   1.931       .  S
C683        C684   1.408       .  A
C683        C688   1.411       .  A
C684        C685   1.408       .  A
C684       Br695   1.930       .  S
C685        C686   1.413       .  A
C685       Br691   1.928       .  S
C686        C687   1.411       .  A
C687        C688   1.408       .  A
C687       Br696   1.931       .  S
C688       Br692   1.930       .  S
C697        C698   1.416       .  A
C697        C702   1.414       .  A
C698        C699   1.412       .  A
C698       Br710   1.931       .  S
C699        C700   1.408       .  A
C699       Br714   1.929       .  S
C700        C703   1.486       .  S
C700        C701   1.407       .  A
C701        C702   1.405       .  A
C701       Br709   1.934       .  S
C702       Br713   1.929       .  S
C703        C704   1.408       .  A
C703        C708   1.408       .  A
C704        C705   1.409       .  A
C704       Br715   1.929       .  S
C705        C706   1.416       .  A
C705       Br711   1.931       .  S
C706        C707   1.414       .  A
C707        C708   1.408       .  A
C707       Br716   1.930       .  S
C708       Br712   1.930       .  S
C717        C718   1.412       .  A
C717        C722   1.411       .  A
C718        C719   1.407       .  A
C718       Br730   1.932       .  S
C719        C720   1.409       .  A
C719       Br734   1.930       .  S
C720        C723   1.485       .  S
C720        C721   1.409       .  A
C721        C722   1.408       .  A
C721       Br729   1.929       .  S
C722       Br733   1.930       .  S
C723        C724   1.408       .  A
C723        C728   1.406       .  A
C724        C725   1.411       .  A
C724       Br735   1.931       .  S
C725        C726   1.418       .  A
C725       Br731   1.932       .  S
C726        C727   1.416       .  A
C727        C728   1.406       .  A
C727       Br736   1.927       .  S
C728       Br732   1.933       .  S
C737        C738   1.415       .  A
C737        C742   1.417       .  A
C738        C739   1.405       .  A
C738       Br750   1.933       .  S
C739        C740   1.407       .  A
C739       Br754   1.932       .  S
C740        C743   1.485       .  S
C740        C741   1.408       .  A
C741        C742   1.410       .  A
C741       Br749   1.930       .  S
C742       Br753   1.933       .  S
C743        C744   1.408       .  A
C743        C748   1.407       .  A
C744        C745   1.408       .  A
C744       Br755   1.932       .  S
C745        C746   1.414       .  A
C745       Br751   1.931       .  S
C746        C747   1.415       .  A
C747        C748   1.409       .  A
C747       Br756   1.929       .  S
C748       Br752   1.931       .  S
C757        C758   1.411       .  A
C757        C762   1.411       .  A
C758        C759   1.409       .  A
C758       Br770   1.931       .  S
C759        C760   1.410       .  A
C759       Br774   1.929       .  S
C760        C763   1.488       .  S
C760        C761   1.410       .  A
C761        C762   1.409       .  A
C761       Br769   1.929       .  S
C762       Br773   1.931       .  S
C763        C764   1.408       .  A
C763        C768   1.409       .  A
C764        C765   1.409       .  A
C764       Br775   1.929       .  S
C765        C766   1.414       .  A
C765       Br771   1.931       .  S
C766        C767   1.415       .  A
C767        C768   1.410       .  A
C767       Br776   1.931       .  S
C768       Br772   1.931       .  S
C777        C778   1.415       .  A
C777        C782   1.415       .  A
C778        C779   1.408       .  A
C778       Br790   1.931       .  S
C779        C780   1.408       .  A
C779       Br794   1.932       .  S
C780        C783   1.491       .  S
C780        C781   1.410       .  A
C781        C782   1.414       .  A
C781       Br789   1.929       .  S
C782       Br793   1.928       .  S
C783        C784   1.410   1_554  A
C783        C788   1.409   1_554  A
C784        C785   1.411       .  A
C784       Br795   1.928   1_556  S
C785        C786   1.412       .  A
C785       Br791   1.930       .  S
C786        C787   1.412       .  A
C787        C788   1.408       .  A
C787       Br796   1.932       .  S
C788       Br792   1.929   1_556  S
C797        C798   1.411       .  A
C797        C802   1.412       .  A
C798        C799   1.408       .  A
C798       Br810   1.929       .  S
C799        C800   1.409       .  A
C799       Br814   1.930       .  S
C800        C803   1.484   1_655  S
C800        C801   1.409       .  A
C801        C802   1.406       .  A
C801       Br809   1.931   1_655  S
C802       Br813   1.931       .  S
C803        C804   1.409       .  A
C803        C808   1.409       .  A
C804        C805   1.406       .  A
C804       Br815   1.931       .  S
C805        C806   1.411       .  A
C805       Br811   1.931       .  S
C806        C807   1.414       .  A
C807        C808   1.408       .  A
C807       Br816   1.933       .  S
C808       Br812   1.931       .  S
C817        C818   1.410       .  A
C817        C822   1.410       .  A
C818        C819   1.411       .  A
C818       Br830   1.929       .  S
C819        C820   1.411       .  A
C819       Br834   1.928       .  S
C820        C823   1.490       .  S
C820        C821   1.410       .  A
C821        C822   1.408       .  A
C821       Br829   1.929       .  S
C822       Br833   1.931       .  S
C823        C824   1.407       .  A
C823        C828   1.409       .  A
C824        C825   1.408       .  A
C824       Br835   1.932       .  S
C825        C826   1.417       .  A
C825       Br831   1.932       .  S
C826        C827   1.417       .  A
C827        C828   1.413       .  A
C827       Br836   1.930       .  S
C828       Br832   1.929       .  S
C837        C838   1.418       .  A
C837        C842   1.415       .  A
C838        C839   1.409       .  A
C838       Br850   1.933       .  S
C839        C840   1.408       .  A
C839       Br854   1.933       .  S
C840        C843   1.491       .  S
C840        C841   1.409       .  A
C841        C842   1.412       .  A
C841       Br849   1.929       .  S
C842       Br853   1.930       .  S
C843        C844   1.407       .  A
C843        C848   1.409       .  A
C844        C845   1.409       .  A
C844       Br855   1.932       .  S
C845        C846   1.419       .  A
C845       Br851   1.935       .  S
C846        C847   1.415       .  A
C847        C848   1.412       .  A
C847       Br856   1.930       .  S
C848       Br852   1.929       .  S
C857        C858   1.416       .  A
C857        C862   1.414       .  A
C858        C859   1.409       .  A
C858       Br870   1.930       .  S
C859        C860   1.408       .  A
C859       Br874   1.931       .  S
C860        C863   1.488       .  S
C860        C861   1.409       .  A
C861        C862   1.410       .  A
C861       Br869   1.931       .  S
C862       Br873   1.930       .  S
C863        C864   1.408       .  A
C863        C868   1.408       .  A
C864        C865   1.409       .  A
C864       Br875   1.930       .  S
C865        C866   1.416       .  A
C865       Br871   1.933       .  S
C866        C867   1.416       .  A
C867        C868   1.409       .  A
C867       Br876   1.932       .  S
C868       Br872   1.931       .  S
C877        C878   1.416       .  A
C877        C882   1.416       .  A
C878        C879   1.414       .  A
C878       Br890   1.930       .  S
C879        C880   1.410       .  A
C879       Br894   1.928       .  S
C880        C883   1.492   1_554  S
C880        C881   1.407       .  A
C881        C882   1.407       .  A
C881       Br889   1.932       .  S
C882       Br893   1.931       .  S
C883        C884   1.410       .  A
C883        C888   1.407       .  A
C884        C885   1.414       .  A
C884       Br895   1.929       .  S
C885        C886   1.416       .  A
C885       Br891   1.930       .  S
C886        C887   1.416       .  A
C887        C888   1.407       .  A
C887       Br896   1.930       .  S
C888       Br892   1.932   1_556  S
C897        C898   1.413       .  A
C897        C902   1.414       .  A
C898        C899   1.410       .  A
C898       Br910   1.930       .  S
C899        C900   1.409       .  A
C899       Br914   1.929       .  S
C900        C903   1.489       .  S
C900        C901   1.409       .  A
C901        C902   1.408       .  A
C901       Br909   1.931       .  S
C902       Br913   1.932       .  S
C903        C904   1.409       .  A
C903        C908   1.409       .  A
C904        C905   1.409       .  A
C904       Br915   1.930       .  S
C905        C906   1.414       .  A
C905       Br911   1.932       .  S
C906        C907   1.413       .  A
C907        C908   1.409       .  A
C907       Br916   1.931       .  S
C908       Br912   1.929       .  S
C917        C918   1.414       .  A
C917        C922   1.413       .  A
C918        C919   1.406       .  A
C918       Br930   1.933       .  S
C919        C920   1.408       .  A
C919       Br934   1.931       .  S
C920        C923   1.490       .  S
C920        C921   1.410       .  A
C921        C922   1.413       .  A
C921       Br929   1.928       .  S
C922       Br933   1.928       .  S
C923        C924   1.407       .  A
C923        C928   1.409       .  A
C924        C925   1.408       .  A
C924       Br935   1.933       .  S
C925        C926   1.416       .  A
C925       Br931   1.929       .  S
C926        C927   1.417       .  A
C927        C928   1.413       .  A
C927       Br936   1.930       .  S
C928       Br932   1.929       .  S
C937        C938   1.411       .  A
C937        C942   1.410       .  A
C938        C939   1.406       .  A
C938       Br950   1.930       .  S
C939        C940   1.408       .  A
C939       Br954   1.930       .  S
C940        C943   1.477       .  S
C940        C941   1.407       .  A
C941        C942   1.403       .  A
C941       Br949   1.930       .  S
C942       Br953   1.933       .  S
C943        C944   1.406       .  A
C943        C948   1.406       .  A
C944        C945   1.404       .  A
C944       Br955   1.932       .  S
C945        C946   1.414       .  A
C945       Br951   1.933       .  S
C946        C947   1.414       .  A
C947        C948   1.407       .  A
C947       Br956   1.931       .  S
C948       Br952   1.930       .  S
C957        C958   1.414       .  A
C957        C962   1.412       .  A
C958        C959   1.409       .  A
C958       Br970   1.930       .  S
C959        C960   1.408       .  A
C959       Br974   1.930       .  S
C960        C963   1.490       .  S
C960        C961   1.410       .  A
C961        C962   1.411       .  A
C961       Br969   1.930       .  S
C962       Br973   1.930       .  S
C963        C964   1.409       .  A
C963        C968   1.410       .  A
C964        C965   1.409       .  A
C964       Br975   1.929       .  S
C965        C966   1.411       .  A
C965       Br971   1.930       .  S
C966        C967   1.413       .  A
C967        C968   1.411       .  A
C967       Br976   1.930       .  S
C968       Br972   1.930       .  S
C977        C978   1.414       .  A
C977        C982   1.413       .  A
C978        C979   1.405       .  A
C978       Br990   1.933       .  S
C979        C980   1.407       .  A
C979       Br994   1.930       .  S
C980        C983   1.479       .  S
C980        C981   1.408       .  A
C981        C982   1.406       .  A
C981       Br989   1.931       .  S
C982       Br993   1.932       .  S
C983        C984   1.408       .  A
C983        C988   1.409       .  A
C984        C985   1.406       .  A
C984       Br995   1.931       .  S
C985        C986   1.411       .  A
C985       Br991   1.930       .  S
C986        C987   1.410       .  A
C987        C988   1.406       .  A
C987       Br996   1.930       .  S
C988       Br992   1.931       .  S
C997        C998   1.421       .  A
C997       C1002   1.417       .  A
C998        C999   1.409       .  A
C998      Br1010   1.934       .  S
C999       C1000   1.406       .  A
C999      Br1014   1.933       .  S
C1000      C1003   1.485       .  S
C1000      C1001   1.407       .  A
C1001      C1002   1.409       .  A
C1001     Br1009   1.930       .  S
C1002     Br1013   1.931       .  S
C1003      C1004   1.410       .  A
C1003      C1008   1.407       .  A
C1004      C1005   1.411       .  A
C1004     Br1015   1.928       .  S
C1005      C1006   1.412       .  A
C1005     Br1011   1.930       .  S
C1006      C1007   1.415       .  A
C1007      C1008   1.404       .  A
C1007     Br1016   1.934       .  S
C1008     Br1012   1.932       .  S
C1017      C1018   1.413       .  A
C1017      C1022   1.414       .  A
C1018      C1019   1.407       .  A
C1018     Br1030   1.931       .  S
C1019      C1020   1.407       .  A
C1019     Br1034   1.930       .  S
C1020      C1023   1.483       .  S
C1020      C1021   1.408       .  A
C1021      C1022   1.407       .  A
C1021     Br1029   1.931       .  S
C1022     Br1033   1.931       .  S
C1023      C1024   1.408       .  A
C1023      C1028   1.407       .  A
C1024      C1025   1.409   1_565  A
C1024     Br1035   1.932       .  S
C1025      C1026   1.415       .  A
C1025     Br1031   1.931       .  S
C1026      C1027   1.416       .  A
C1027      C1028   1.406   1_545  A
C1027     Br1036   1.933       .  S
C1028     Br1032   1.931       .  S
C1037      C1038   1.412       .  A
C1037      C1042   1.411       .  A
C1038      C1039   1.408       .  A
C1038     Br1050   1.931       .  S
C1039      C1040   1.408       .  A
C1039     Br1054   1.929       .  S
C1040      C1043   1.482       .  S
C1040      C1041   1.408       .  A
C1041      C1042   1.405       .  A
C1041     Br1049   1.931       .  S
C1042     Br1053   1.931       .  S
C1043      C1044   1.407       .  A
C1043      C1048   1.406       .  A
C1044      C1045   1.406       .  A
C1044     Br1055   1.932       .  S
C1045      C1046   1.416       .  A
C1045     Br1051   1.933       .  S
C1046      C1047   1.418       .  A
C1047      C1048   1.408       .  A
C1047     Br1056   1.932       .  S
C1048     Br1052   1.932       .  S
C1057      C1058   1.414       .  A
C1057      C1062   1.416       .  A
C1058      C1059   1.406       .  A
C1058     Br1070   1.932       .  S
C1059      C1060   1.407       .  A
C1059     Br1074   1.930       .  S
C1060      C1063   1.479       .  S
C1060      C1061   1.406       .  A
C1061      C1062   1.405       .  A
C1061     Br1069   1.933       .  S
C1062     Br1073   1.931       .  S
C1063      C1064   1.408       .  A
C1063      C1068   1.407       .  A
C1064      C1065   1.407       .  A
C1064     Br1075   1.931       .  S
C1065      C1066   1.414       .  A
C1065     Br1071   1.932       .  S
C1066      C1067   1.412       .  A
C1067      C1068   1.403       .  A
C1067     Br1076   1.932       .  S
C1068     Br1072   1.932       .  S
C1077      C1078   1.410       .  A
C1077      C1082   1.411       .  A
C1078      C1079   1.411       .  A
C1078     Br1090   1.929       .  S
C1079      C1080   1.411       .  A
C1079     Br1094   1.928       .  S
C1080      C1083   1.497       .  S
C1080      C1081   1.413       .  A
C1081      C1082   1.412       .  A
C1081     Br1089   1.930       .  S
C1082     Br1093   1.930       .  S
C1083      C1084   1.412       .  A
C1083      C1088   1.408       .  A
C1084      C1085   1.414       .  A
C1084     Br1095   1.931       .  S
C1085      C1086   1.415       .  A
C1085     Br1091   1.931       .  S
C1086      C1087   1.418       .  A
C1087      C1088   1.411       .  A
C1087     Br1096   1.931       .  S
C1088     Br1092   1.930       .  S
C1097      C1098   1.412       .  A
C1097      C1102   1.413       .  A
C1098      C1099   1.408   1_545  A
C1098     Br1110   1.929       .  S
C1099      C1100   1.409       .  A
C1099     Br1114   1.929       .  S
C1100      C1103   1.482       .  S
C1100      C1101   1.406       .  A
C1101      C1102   1.404   1_565  A
C1101     Br1109   1.931       .  S
C1102     Br1113   1.929       .  S
C1103      C1104   1.408       .  A
C1103      C1108   1.406       .  A
C1104      C1105   1.407       .  A
C1104     Br1115   1.931       .  S
C1105      C1106   1.413       .  A
C1105     Br1111   1.928       .  S
C1106      C1107   1.416       .  A
C1107      C1108   1.407       .  A
C1107     Br1116   1.933       .  S
C1108     Br1112   1.931       .  S
C1117      C1118   1.412       .  A
C1117      C1122   1.413       .  A
C1118      C1119   1.413       .  A
C1118     Br1130   1.928       .  S
C1119      C1120   1.412       .  A
C1119     Br1134   1.929       .  S
C1120      C1123   1.494       .  S
C1120      C1121   1.410       .  A
C1121      C1122   1.409       .  A
C1121     Br1129   1.930       .  S
C1122     Br1133   1.933       .  S
C1123      C1124   1.409       .  A
C1123      C1128   1.409       .  A
C1124      C1125   1.413       .  A
C1124     Br1135   1.929       .  S
C1125      C1126   1.415       .  A
C1125     Br1131   1.930       .  S
C1126      C1127   1.419       .  A
C1127      C1128   1.411       .  A
C1127     Br1136   1.931       .  S
C1128     Br1132   1.934       .  S
C1137      C1138   1.416       .  A
C1137      C1142   1.416       .  A
C1138      C1139   1.410       .  A
C1138     Br1150   1.932       .  S
C1139      C1140   1.408       .  A
C1139     Br1154   1.929       .  S
C1140      C1143   1.488       .  S
C1140      C1141   1.408       .  A
C1141      C1142   1.408       .  A
C1141     Br1149   1.932       .  S
C1142     Br1153   1.932       .  S
C1143      C1144   1.409   1_554  A
C1143      C1148   1.406   1_554  A
C1144      C1145   1.413       .  A
C1144     Br1155   1.929   1_556  S
C1145      C1146   1.416       .  A
C1145     Br1151   1.929       .  S
C1146      C1147   1.419       .  A
C1147      C1148   1.407       .  A
C1147     Br1156   1.931       .  S
C1148     Br1152   1.934   1_556  S
C1157      C1158   1.411       .  A
C1157      C1162   1.410       .  A
C1158      C1159   1.413       .  A
C1158     Br1170   1.925       .  S
C1159      C1160   1.411       .  A
C1159     Br1174   1.929       .  S
C1160      C1163   1.490       .  S
C1160      C1161   1.409       .  A
C1161      C1162   1.407       .  A
C1161     Br1169   1.929       .  S
C1162     Br1173   1.931       .  S
C1163      C1164   1.407       .  A
C1163      C1168   1.409       .  A
C1164      C1165   1.409       .  A
C1164     Br1175   1.931       .  S
C1165      C1166   1.417       .  A
C1165     Br1171   1.932       .  S
C1166      C1167   1.417       .  A
C1167      C1168   1.412       .  A
C1167     Br1176   1.933       .  S
C1168     Br1172   1.930       .  S
C1177      C1178   1.414       .  A
C1177      C1182   1.414       .  A
C1178      C1179   1.406       .  A
C1178     Br1190   1.933       .  S
C1179      C1180   1.408       .  A
C1179     Br1194   1.932       .  S
C1180      C1183   1.487       .  S
C1180      C1181   1.409       .  A
C1181      C1182   1.412       .  A
C1181     Br1189   1.929       .  S
C1182     Br1193   1.930       .  S
C1183      C1184   1.410       .  A
C1183      C1188   1.408       .  A
C1184      C1185   1.412       .  A
C1184     Br1195   1.929       .  S
C1185      C1186   1.413       .  A
C1185     Br1191   1.928       .  S
C1186      C1187   1.414       .  A
C1187      C1188   1.406       .  A
C1187     Br1196   1.933       .  S
C1188     Br1192   1.931       .  S
C1197      C1198   1.416       .  A
C1197      C1202   1.415       .  A
C1198      C1199   1.407       .  A
C1198     Br1210   1.934       .  S
C1199      C1200   1.407       .  A
C1199     Br1214   1.932       .  S
C1200      C1203   1.485       .  S
C1200      C1201   1.408       .  A
C1201      C1202   1.409       .  A
C1201     Br1209   1.930       .  S
C1202     Br1213   1.932       .  S
C1203      C1204   1.408       .  A
C1203      C1208   1.409       .  A
C1204      C1205   1.408       .  A
C1204     Br1215   1.931       .  S
C1205      C1206   1.415       .  A
C1205     Br1211   1.931       .  S
C1206      C1207   1.413       .  A
C1207      C1208   1.408       .  A
C1207     Br1216   1.931       .  S
C1208     Br1212   1.930       .  S
C1217      C1218   1.409       .  A
C1217      C1222   1.412       .  A
C1218      C1219   1.406       .  A
C1218     Br1230   1.931       .  S
C1219      C1220   1.409       .  A
C1219     Br1234   1.929       .  S
C1220      C1223   1.485       .  S
C1220      C1221   1.409       .  A
C1221      C1222   1.409       .  A
C1221     Br1229   1.930       .  S
C1222     Br1233   1.930       .  S
C1223      C1224   1.408       .  A
C1223      C1228   1.407       .  A
C1224      C1225   1.407       .  A
C1224     Br1235   1.930       .  S
C1225      C1226   1.414       .  A
C1225     Br1231   1.933       .  S
C1226      C1227   1.414       .  A
C1227      C1228   1.408       .  A
C1227     Br1236   1.931       .  S
C1228     Br1232   1.929       .  S
C1237      C1238   1.417       .  A
C1237      C1242   1.415       .  A
C1238      C1239   1.410       .  A
C1238     Br1250   1.933       .  S
C1239      C1240   1.408       .  A
C1239     Br1254   1.932       .  S
C1240      C1243   1.495   1_554  S
C1240      C1241   1.410       .  A
C1241      C1242   1.415       .  A
C1241     Br1249   1.928       .  S
C1242     Br1253   1.927       .  S
C1243      C1244   1.411       .  A
C1243      C1248   1.410       .  A
C1244      C1245   1.413       .  A
C1244     Br1255   1.927       .  S
C1245      C1246   1.413       .  A
C1245     Br1251   1.929       .  S
C1246      C1247   1.413       .  A
C1247      C1248   1.410       .  A
C1247     Br1256   1.933       .  S
C1248     Br1252   1.930   1_556  S
C1257      C1258   1.414       .  A
C1257      C1262   1.414       .  A
C1258      C1259   1.405       .  A
C1258     Br1270   1.933       .  S
C1259      C1260   1.408       .  A
C1259     Br1274   1.932       .  S
C1260      C1263   1.481       .  S
C1260      C1261   1.407       .  A
C1261      C1262   1.407       .  A
C1261     Br1269   1.929       .  S
C1262     Br1273   1.932       .  S
C1263      C1264   1.409       .  A
C1263      C1268   1.406       .  A
C1264      C1265   1.408       .  A
C1264     Br1275   1.931       .  S
C1265      C1266   1.411       .  A
C1265     Br1271   1.929       .  S
C1266      C1267   1.412       .  A
C1267      C1268   1.405       .  A
C1267     Br1276   1.931       .  S
C1268     Br1272   1.930       .  S
C1277      C1278   1.419       .  A
C1277      C1282   1.414       .  A
C1278      C1279   1.413       .  A
C1278     Br1290   1.934       .  S
C1279      C1280   1.410       .  A
C1279     Br1294   1.932       .  S
C1280      C1283   1.496       .  S
C1280      C1281   1.409       .  A
C1281      C1282   1.412       .  A
C1281     Br1289   1.929       .  S
C1282     Br1293   1.928       .  S
C1283      C1284   1.408       .  A
C1283      C1288   1.412       .  A
C1284      C1285   1.410       .  A
C1284     Br1295   1.930       .  S
C1285      C1286   1.417       .  A
C1285     Br1291   1.934       .  S
C1286      C1287   1.414       .  A
C1287      C1288   1.414       .  A
C1287     Br1296   1.931       .  S
C1288     Br1292   1.928       .  S
C1297      C1298   1.414       .  A
C1297      C1302   1.414       .  A
C1298      C1299   1.408       .  A
C1298     Br1310   1.931       .  S
C1299      C1300   1.408   1_655  A
C1299     Br1314   1.930   1_655  S
C1300      C1303   1.486       .  S
C1300      C1301   1.408   1_455  A
C1301      C1302   1.409       .  A
C1301     Br1309   1.929   1_655  S
C1302     Br1313   1.932       .  S
C1303      C1304   1.407       .  A
C1303      C1308   1.408       .  A
C1304      C1305   1.407       .  A
C1304     Br1315   1.932       .  S
C1305      C1306   1.414       .  A
C1305     Br1311   1.929       .  S
C1306      C1307   1.416       .  A
C1307      C1308   1.411       .  A
C1307     Br1316   1.932       .  S
C1308     Br1312   1.929       .  S
C1317      C1318   1.416       .  A
C1317      C1322   1.414       .  A
C1318      C1319   1.409       .  A
C1318     Br1330   1.931       .  S
C1319      C1320   1.409       .  A
C1319     Br1334   1.932       .  S
C1320      C1323   1.490       .  S
C1320      C1321   1.409       .  A
C1321      C1322   1.410       .  A
C1321     Br1329   1.930       .  S
C1322     Br1333   1.931       .  S
C1323      C1324   1.409       .  A
C1323      C1328   1.409       .  A
C1324      C1325   1.409       .  A
C1324     Br1335   1.930       .  S
C1325      C1326   1.414       .  A
C1325     Br1331   1.932       .  S
C1326      C1327   1.415       .  A
C1327      C1328   1.410       .  A
C1327     Br1336   1.929       .  S
C1328     Br1332   1.931       .  S
C1337      C1338   1.414       .  A
C1337      C1342   1.414       .  A
C1338      C1339   1.412       .  A
C1338     Br1350   1.929       .  S
C1339      C1340   1.410       .  A
C1339     Br1354   1.930       .  S
C1340      C1343   1.489       .  S
C1340      C1341   1.407       .  A
C1341      C1342   1.408       .  A
C1341     Br1349   1.930       .  S
C1342     Br1353   1.932       .  S
C1343      C1344   1.409       .  A
C1343      C1348   1.411       .  A
C1344      C1345   1.409       .  A
C1344     Br1355   1.927       .  S
C1345      C1346   1.409       .  A
C1345     Br1351   1.930       .  S
C1346      C1347   1.410       .  A
C1347      C1348   1.409       .  A
C1347     Br1356   1.930       .  S
C1348     Br1352   1.930       .  S
C1357      C1358   1.413       .  A
C1357      C1362   1.413       .  A
C1358      C1359   1.407       .  A
C1358     Br1370   1.932       .  S
C1359      C1360   1.408       .  A
C1359     Br1374   1.930       .  S
C1360      C1363   1.486       .  S
C1360      C1361   1.409       .  A
C1361      C1362   1.409       .  A
C1361     Br1369   1.930       .  S
C1362     Br1373   1.930       .  S
C1363      C1364   1.408       .  A
C1363      C1368   1.407       .  A
C1364      C1365   1.408   1_565  A
C1364     Br1375   1.931       .  S
C1365      C1366   1.414       .  A
C1365     Br1371   1.931       .  S
C1366      C1367   1.415       .  A
C1367      C1368   1.409   1_545  A
C1367     Br1376   1.931       .  S
C1368     Br1372   1.930       .  S
C1377      C1378   1.412       .  A
C1377      C1382   1.414       .  A
C1378      C1379   1.407       .  A
C1378     Br1390   1.930       .  S
C1379      C1380   1.408       .  A
C1379     Br1394   1.931       .  S
C1380      C1383   1.483       .  S
C1380      C1381   1.408       .  A
C1381      C1382   1.408       .  A
C1381     Br1389   1.930       .  S
C1382     Br1393   1.932       .  S
C1383      C1384   1.407       .  A
C1383      C1388   1.407       .  A
C1384      C1385   1.407       .  A
C1384     Br1395   1.931       .  S
C1385      C1386   1.414       .  A
C1385     Br1391   1.932       .  S
C1386      C1387   1.415       .  A
C1387      C1388   1.408       .  A
C1387     Br1396   1.932       .  S
C1388     Br1392   1.930       .  S
C1397      C1398   1.413       .  A
C1397      C1402   1.414       .  A
C1398      C1399   1.408       .  A
C1398     Br1410   1.931       .  S
C1399      C1400   1.408       .  A
C1399     Br1414   1.930       .  S
C1400      C1403   1.485       .  S
C1400      C1401   1.408       .  A
C1401      C1402   1.408       .  A
C1401     Br1409   1.931       .  S
C1402     Br1413   1.932       .  S
C1403      C1404   1.407       .  A
C1403      C1408   1.408       .  A
C1404      C1405   1.408       .  A
C1404     Br1415   1.931       .  S
C1405      C1406   1.415       .  A
C1405     Br1411   1.931       .  S
C1406      C1407   1.415       .  A
C1407      C1408   1.409       .  A
C1407     Br1416   1.932       .  S
C1408     Br1412   1.930       .  S
C1417      C1418   1.411       .  A
C1417      C1422   1.409       .  A
C1418      C1419   1.407       .  A
C1418     Br1430   1.931       .  S
C1419      C1420   1.409       .  A
C1419     Br1434   1.930       .  S
C1420      C1423   1.483       .  S
C1420      C1421   1.409       .  A
C1421      C1422   1.406       .  A
C1421     Br1429   1.929       .  S
C1422     Br1433   1.929       .  S
C1423      C1424   1.406       .  A
C1423      C1428   1.406       .  A
C1424      C1425   1.407       .  A
C1424     Br1435   1.933       .  S
C1425      C1426   1.420       .  A
C1425     Br1431   1.936       .  S
C1426      C1427   1.418       .  A
C1427      C1428   1.409       .  A
C1427     Br1436   1.932       .  S
C1428     Br1432   1.930       .  S
C1437      C1438   1.423       .  A
C1437      C1442   1.419       .  A
C1438      C1439   1.409       .  A
C1438     Br1450   1.935       .  S
C1439      C1440   1.405       .  A
C1439     Br1454   1.933       .  S
C1440      C1443   1.486       .  S
C1440      C1441   1.406       .  A
C1441      C1442   1.410       .  A
C1441     Br1449   1.931       .  S
C1442     Br1453   1.933       .  S
C1443      C1444   1.408       .  A
C1443      C1448   1.408       .  A
C1444      C1445   1.410       .  A
C1444     Br1455   1.929       .  S
C1445      C1446   1.414       .  A
C1445     Br1451   1.929       .  S
C1446      C1447   1.414       .  A
C1447      C1448   1.407       .  A
C1447     Br1456   1.932       .  S
C1448     Br1452   1.932       .  S
C1457      C1458   1.417       .  A
C1457      C1462   1.419       .  A
C1458      C1459   1.407       .  A
C1458     Br1470   1.932       .  S
C1459      C1460   1.406       .  A
C1459     Br1474   1.932   1_655  S
C1460      C1463   1.487   1_655  S
C1460      C1461   1.407       .  A
C1461      C1462   1.412       .  A
C1461     Br1469   1.931   1_655  S
C1462     Br1473   1.931       .  S
C1463      C1464   1.409       .  A
C1463      C1468   1.408       .  A
C1464      C1465   1.409       .  A
C1464     Br1475   1.931       .  S
C1465      C1466   1.414       .  A
C1465     Br1471   1.931       .  S
C1466      C1467   1.412       .  A
C1467      C1468   1.408       .  A
C1467     Br1476   1.932       .  S
C1468     Br1472   1.928       .  S
C1477      C1478   1.414       .  A
C1477      C1482   1.412       .  A
C1478      C1479   1.405       .  A
C1478     Br1490   1.933       .  S
C1479      C1480   1.408       .  A
C1479     Br1494   1.932       .  S
C1480      C1483   1.484       .  S
C1480      C1481   1.409       .  A
C1481      C1482   1.410       .  A
C1481     Br1489   1.928       .  S
C1482     Br1493   1.931       .  S
C1483      C1484   1.407       .  A
C1483      C1488   1.408       .  A
C1484      C1485   1.407       .  A
C1484     Br1495   1.932       .  S
C1485      C1486   1.414       .  A
C1485     Br1491   1.932       .  S
C1486      C1487   1.412       .  A
C1487      C1488   1.410       .  A
C1487     Br1496   1.926       .  S
C1488     Br1492   1.929       .  S
C1497      C1498   1.413       .  A
C1497      C1502   1.413       .  A
C1498      C1499   1.408       .  A
C1498     Br1510   1.931       .  S
C1499      C1500   1.408       .  A
C1499     Br1514   1.930       .  S
C1500      C1503   1.486       .  S
C1500      C1501   1.408       .  A
C1501      C1502   1.409       .  A
C1501     Br1509   1.929       .  S
C1502     Br1513   1.931       .  S
C1503      C1504   1.408       .  A
C1503      C1508   1.408       .  A
C1504      C1505   1.409       .  A
C1504     Br1515   1.931       .  S
C1505      C1506   1.414       .  A
C1505     Br1511   1.931       .  S
C1506      C1507   1.414       .  A
C1507      C1508   1.408       .  A
C1507     Br1516   1.931       .  S
C1508     Br1512   1.930       .  S
C1517      C1518   1.415       .  A
C1517      C1522   1.415       .  A
C1518      C1519   1.410       .  A
C1518     Br1530   1.930       .  S
C1519      C1520   1.407       .  A
C1519     Br1534   1.929       .  S
C1520      C1523   1.485       .  S
C1520      C1521   1.407       .  A
C1521      C1522   1.406       .  A
C1521     Br1529   1.932       .  S
C1522     Br1533   1.932       .  S
C1523      C1524   1.408   1_554  A
C1523      C1528   1.408   1_554  A
C1524      C1525   1.410       .  A
C1524     Br1535   1.927       .  S
C1525      C1526   1.413       .  A
C1525     Br1531   1.929       .  S
C1526      C1527   1.414       .  A
C1527      C1528   1.406       .  A
C1527     Br1536   1.933       .  S
C1528     Br1532   1.933   1_556  S
C1537      C1538   1.412       .  A
C1537      C1542   1.411       .  A
C1538      C1539   1.409       .  A
C1538     Br1550   1.931       .  S
C1539      C1540   1.410       .  A
C1539     Br1554   1.931       .  S
C1540      C1543   1.483       .  S
C1540      C1541   1.407       .  A
C1541      C1542   1.406       .  A
C1541     Br1549   1.928       .  S
C1542     Br1553   1.931       .  S
C1543      C1544   1.409       .  A
C1543      C1548   1.408       .  A
C1544      C1545   1.407       .  A
C1544     Br1555   1.931       .  S
C1545      C1546   1.411       .  A
C1545     Br1551   1.931       .  S
C1546      C1547   1.411       .  A
C1547      C1548   1.408       .  A
C1547     Br1556   1.929       .  S
C1548     Br1552   1.929       .  S
C1557      C1558   1.413       .  A
C1557      C1562   1.412       .  A
C1558      C1559   1.406       .  A
C1558     Br1570   1.932       .  S
C1559      C1560   1.407       .  A
C1559     Br1574   1.931       .  S
C1560      C1563   1.478       .  S
C1560      C1561   1.407       .  A
C1561      C1562   1.404       .  A
C1561     Br1569   1.931       .  S
C1562     Br1573   1.931       .  S
C1563      C1564   1.406       .  A
C1563      C1568   1.407       .  A
C1564      C1565   1.405   1_565  A
C1564     Br1575   1.931       .  S
C1565      C1566   1.416       .  A
C1565     Br1571   1.933       .  S
C1566      C1567   1.414       .  A
C1567      C1568   1.406   1_545  A
C1567     Br1576   1.931       .  S
C1568     Br1572   1.931       .  S
C1577      C1578   1.415       .  A
C1577      C1582   1.415       .  A
C1578      C1579   1.407       .  A
C1578     Br1590   1.932       .  S
C1579      C1580   1.407       .  A
C1579     Br1594   1.931       .  S
C1580      C1583   1.488       .  S
C1580      C1581   1.408       .  A
C1581      C1582   1.411       .  A
C1581     Br1589   1.929       .  S
C1582     Br1593   1.930       .  S
C1583      C1584   1.408       .  A
C1583      C1588   1.407       .  A
C1584      C1585   1.409       .  A
C1584     Br1595   1.934       .  S
C1585      C1586   1.419       .  A
C1585     Br1591   1.934       .  S
C1586      C1587   1.417       .  A
C1587      C1588   1.410       .  A
C1587     Br1596   1.930       .  S
C1588     Br1592   1.930       .  S
C1597      C1598   1.412       .  A
C1597      C1602   1.411       .  A
C1598      C1599   1.404       .  A
C1598     Br1610   1.933       .  S
C1599      C1600   1.408       .  A
C1599     Br1614   1.933       .  S
C1600      C1603   1.480       .  S
C1600      C1601   1.409       .  A
C1601      C1602   1.408       .  A
C1601     Br1609   1.929       .  S
C1602     Br1613   1.930       .  S
C1603      C1604   1.408       .  A
C1603      C1608   1.408       .  A
C1604      C1605   1.405       .  A
C1604     Br1615   1.930       .  S
C1605      C1606   1.411       .  A
C1605     Br1611   1.930       .  S
C1606      C1607   1.411       .  A
C1607      C1608   1.405       .  A
C1607     Br1616   1.930       .  S
C1608     Br1612   1.930       .  S
C1617      C1618   1.414       .  A
C1617      C1622   1.414       .  A
C1618      C1619   1.408       .  A
C1618     Br1630   1.931       .  S
C1619      C1620   1.408       .  A
C1619     Br1634   1.931       .  S
C1620      C1623   1.483       .  S
C1620      C1621   1.407       .  A
C1621      C1622   1.407       .  A
C1621     Br1629   1.930       .  S
C1622     Br1633   1.932       .  S
C1623      C1624   1.408       .  A
C1623      C1628   1.407       .  A
C1624      C1625   1.408       .  A
C1624     Br1635   1.930       .  S
C1625      C1626   1.414       .  A
C1625     Br1631   1.931       .  S
C1626      C1627   1.415       .  A
C1627      C1628   1.408       .  A
C1627     Br1636   1.932       .  S
C1628     Br1632   1.931       .  S
C1637      C1638   1.415       .  A
C1637      C1642   1.415       .  A
C1638      C1639   1.412       .  A
C1638     Br1650   1.929       .  S
C1639      C1640   1.409       .  A
C1639     Br1654   1.928       .  S
C1640      C1643   1.491       .  S
C1640      C1641   1.408       .  A
C1641      C1642   1.408       .  A
C1641     Br1649   1.932       .  S
C1642     Br1653   1.931       .  S
C1643      C1644   1.410   1_554  A
C1643      C1648   1.410   1_554  A
C1644      C1645   1.412       .  A
C1644     Br1655   1.928   1_556  S
C1645      C1646   1.412       .  A
C1645     Br1651   1.929       .  S
C1646      C1647   1.412       .  A
C1647      C1648   1.408       .  A
C1647     Br1656   1.933       .  S
C1648     Br1652   1.930   1_556  S
C1657      C1658   1.414       .  A
C1657      C1662   1.414       .  A
C1658      C1659   1.407       .  A
C1658     Br1670   1.930       .  S
C1659      C1660   1.408       .  A
C1659     Br1674   1.931       .  S
C1660      C1663   1.481       .  S
C1660      C1661   1.407       .  A
C1661      C1662   1.406       .  A
C1661     Br1669   1.931       .  S
C1662     Br1673   1.931       .  S
C1663      C1664   1.409       .  A
C1663      C1668   1.408       .  A
C1664      C1665   1.408       .  A
C1664     Br1675   1.930       .  S
C1665      C1666   1.411       .  A
C1665     Br1671   1.931       .  S
C1666      C1667   1.410       .  A
C1667      C1668   1.404       .  A
C1667     Br1676   1.933       .  S
C1668     Br1672   1.930       .  S
C1677      C1678   1.413       .  A
C1677      C1682   1.410       .  A
C1678      C1679   1.409       .  A
C1678     Br1690   1.931       .  S
C1679      C1680   1.409       .  A
C1679     Br1694   1.929       .  S
C1680      C1683   1.491       .  S
C1680      C1681   1.412       .  A
C1681      C1682   1.410       .  A
C1681     Br1689   1.929       .  S
C1682     Br1693   1.929       .  S
C1683      C1684   1.411       .  A
C1683      C1688   1.409       .  A
C1684      C1685   1.410       .  A
C1684     Br1695   1.931       .  S
C1685      C1686   1.413       .  A
C1685     Br1691   1.930       .  S
C1686      C1687   1.414       .  A
C1687      C1688   1.410       .  A
C1687     Br1696   1.931       .  S
C1688     Br1692   1.929       .  S
