geometry optimzed in LAMMPS
_audit_creation_date              2020-11-30 
_audit_creation_method            'lammps2cif' 
_symmetry_space_group_name_H-M    'P1' 
_symmetry_Int_Tables_number       1 
_symmetry_cell_setting            triclinic 
loop_ 
_symmetry_equiv_pos_as_xyz 
  x,y,z 
_cell_length_a                    31.02258628 
_cell_length_b                    31.5013431241211 
_cell_length_c                    30.87519288948077 
_cell_angle_alpha                 83.028791228243 
_cell_angle_beta                  97.27192657808254 
_cell_angle_gamma                 97.29106072394883 
loop_ 
_atom_site_label 
_atom_site_type_symbol 
_atom_site_fract_x 
_atom_site_fract_y 
_atom_site_fract_z 
_atom_site_charge 
C1          C  0.44394449  0.13160456  0.55130367     0.02800
C2          C  0.40121992  0.14282321  0.54751372    -0.13300
C3          C  0.39428409  0.18541905  0.54919496     0.00300
C4          C  0.43051224  0.21676350  0.05621281    -0.11900
C5          C  0.47407565  0.20755288  0.05923333     0.02800
C6          C  0.48018548  0.16384201  0.05660695    -0.12100
H7          H  0.37352117  0.11825153  0.54427034     0.08400
H8          H  0.42390542  0.24854557  0.06103064     0.05900
H9          H  0.01265677  0.15403604  0.05977069     0.05800
C10         C  0.39685850  0.18887995  0.29163133     0.02800
C11         C  0.43223150  0.22037484  0.29929056    -0.13300
C12         C  0.47510559  0.21260277  0.29714339     0.00300
C13         C  0.48254800  0.17279488  0.28718066    -0.11900
C14         C  0.44982049  0.13780886  0.28898890     0.02800
C15         C  0.40576196  0.14597923  0.28949631    -0.11300
H16         H  0.42609457  0.25113790  0.30803837     0.08400
H17         H  0.01548804  0.16816063  0.28220001     0.05900
H18         H  0.37948382  0.11984774  0.28898486     0.05800
C19         C  0.33674032  0.45821348  0.05145271     0.02800
C20         C  0.30287746  0.48350211  0.05438047    -0.13300
C21         C  0.25919578  0.46473908  0.05941999     0.00300
C22         C  0.25107440  0.41947244  0.06311698    -0.11900
C23         C  0.28290540  0.39395493  0.05702894     0.02800
C24         C  0.32579315  0.41339845  0.05085874    -0.11300
H25         H  0.31176543  0.01778864  0.05335429     0.08400
H26         H  0.21963346  0.40302646  0.07002911     0.05900
H27         H  0.35107575  0.39336915  0.04823175     0.05800
C28         C  0.32657766  0.44728929  0.28703820     0.02800
C29         C  0.30040224  0.47621038  0.29820799    -0.13300
C30         C  0.25776432  0.46186393  0.30893561     0.00300
C31         C  0.24348457  0.41713628  0.31005689    -0.11900
C32         C  0.26902378  0.38936341  0.29544982     0.02800
C33         C  0.30965299  0.40501364  0.28252029    -0.11300
H34         H  0.31422083  0.00934963  0.29860207     0.08400
H35         H  0.21295642  0.40339912  0.32205406     0.05900
H36         H  0.33019040  0.38275422  0.27357833     0.05800
O37         O  0.02677983  0.49832623  0.46259974    -0.81200
O38         O  0.02284556  0.44244617  0.15240630    -0.65900
O39         O  0.49036919  0.45069236  0.02926994    -1.12500
C40         C  0.44981077  0.08532434  0.05879343     1.05700
O41         O  0.45397019  0.45276898  0.15208366    -0.79100
O42         O  0.39566208  0.49235785  0.09506566    -0.66700
Ni43       Ni  0.02914016  0.44096981  0.99028718     1.34900
C44         C  0.38368787  0.47771504  0.05847565     0.84400
O45         O  0.02853770  0.38890463  0.08971543    -0.79700
O46         O  0.03151887  0.38302894  0.01780604    -0.89900
C47         C  0.48978996  0.44277910  0.17284364     0.84000
O48         O  0.08507658  0.45968634  0.02041813    -0.68100
O49         O  0.44926785  0.06824885  0.09852219    -0.87400
C50         C  0.09654483  0.47570921  0.05643177     0.84800
C51         C  0.03223754  0.36706681  0.05797984     1.06400
H52         H  0.01512293  0.02260888  0.09049415     0.38200
O53         O  0.48999682  0.00146345  0.08601149    -1.10100
O54         O  0.41015051  0.47908423  0.02949000    -0.66700
Ni55       Ni  0.47064857  0.00675336  0.02555741     1.26300
O56         O  0.06990064  0.47465782  0.08508827    -0.67000
O57         O  0.45372890  0.06440302  0.52632591    -0.79200
C58         C  0.49126612  0.50960732  0.44210826     0.84200
O59         O  0.45841194  0.51071690  0.46265217    -0.66400
Ni60       Ni  0.45148820  0.01032971  0.12537200     1.27400
Ni61       Ni  0.01020321  0.44588411  0.08974262     1.26100
H62         H  0.46506699  0.42970254  0.02503857     0.38700
O63         O  0.39331319  0.43797431  0.26376455    -0.81200
O64         O  0.08890513  0.47407769  0.29937809    -0.65900
O65         O  0.47030370  0.44323013  0.31759263    -1.12500
C66         C  0.46616916  0.09478407  0.29744336     1.05700
O67         O  0.08872850  0.01521195  0.35169238    -0.79100
O68         O  0.02489812  0.04287254  0.38299073    -0.66700
Ni69       Ni  0.43568283  0.39993230  0.28850082     1.34900
C70         C  0.49096306  0.52069098  0.39506077     0.84400
O71         O  0.04449278  0.39763748  0.31552934    -0.79700
O72         O  0.47752973  0.36076984  0.31063142    -0.89900
C73         C  0.10927881  0.49812252  0.32677918     0.84000
O74         O  0.45861040  0.40998070  0.23388783    -0.68100
O75         O  0.00744236  0.09543209  0.30846932    -0.87400
C76         C  0.49093043  0.43389569  0.22006150     0.84800
C77         C  0.01936241  0.36237302  0.31519064     1.06400
H78         H  0.01439537  0.02442229  0.26659965     0.38200
O79         O  0.01350125  0.01391397  0.29724068    -1.10100
O80         O  0.46068349  0.50383127  0.36885157    -0.66700
Ni81       Ni  0.45390076  0.50096343  0.30628970     1.26300
O82         O  0.02039231  0.45395341  0.24460512    -0.67000
O83         O  0.44030427  0.05997228  0.29538866    -0.79200
C84         C  0.37341789  0.45794442  0.28682405     0.84200
O85         O  0.39430523  0.48386839  0.31215592    -0.66400
Ni86       Ni  0.04817778  0.05516907  0.32891427     1.27400
Ni87       Ni  0.02977514  0.45633092  0.30693297     1.26100
H88         H  0.47029362  0.43384018  0.34856813     0.38700
C89         C  0.03907348  0.32107140  0.06780515     0.02800
C90         C  0.00496008  0.28799350  0.05876476    -0.13300
C91         C  0.01163027  0.24352324  0.06685278     0.00300
C92         C  0.05473920  0.23433928  0.08225728    -0.11900
C93         C  0.08955644  0.26758570  0.08816685     0.02800
C94         C  0.08126096  0.31053631  0.08169495    -0.11300
H95         H  0.47372132  0.29787827  0.04454583     0.08400
H96         H  0.06212309  0.20140721  0.08848745     0.05900
H97         H  0.10798717  0.33594325  0.08617179     0.05800
C98         C  0.08767961  0.26491949  0.33863689     0.02800
C99         C  0.05230363  0.23357479  0.32933424    -0.13300
C100        C  0.01225762  0.24511677  0.30831319     0.00300
C101        C  0.50665871  0.28813688  0.29944534    -0.11900
C102        C  0.03679681  0.31997886  0.31716422     0.02800
C103        C  0.07941351  0.30905958  0.33419578    -0.11300
H104        H  0.05664986  0.19980369  0.33632390     0.08400
H105        H  0.47701323  0.29681994  0.27972884     0.05900
H106        H  0.10515135  0.33386817  0.34366622     0.05800
C107        C  0.14315565  0.99593945  0.06419647     0.02800
C108        C  0.17758843  0.47296482  0.05779899    -0.13300
C109        C  0.22220419  0.49127391  0.06213941     0.00300
C110        C  0.23079809  0.03521086  0.06882483    -0.11900
C111        C  0.19703772  0.05957143  0.07271494     0.02800
C112        C  0.15344538  0.03932773  0.07221388    -0.11300
H113        H  0.16851970  0.44075377  0.04874785     0.08400
H114        H  0.26371978  0.05116339  0.07218836     0.05900
H115        H  0.12723755  0.05801122  0.07547747     0.05800
C116        C  0.15620248  0.00840753  0.32962438     0.02800
C117        C  0.18327406  0.48098611  0.31731756    -0.13300
C118        C  0.22879501  0.49279892  0.31948338     0.00300
C119        C  0.24522250  0.03502369  0.32972973    -0.11900
C120        C  0.21691416  0.06273363  0.33978844     0.02800
C121        C  0.17335384  0.04840218  0.34217503    -0.11300
H122        H  0.16824593  0.45095681  0.30577747     0.08400
H123        H  0.27933171  0.04720050  0.33004396     0.05900
H124        H  0.15173206  0.07046808  0.34953782     0.05800
O125        O  0.18597113  0.12052901  0.10457018    -0.81200
O126        O  0.24693635  0.32433506  0.08209115    -0.65900
O127        O  0.20205614  0.20630802  0.06708658    -1.12500
C128        C  0.35008476  0.19963108  0.04452741     1.05700
O129        O  0.28063107  0.33102210  0.02254003    -0.79100
O130        O  0.27661340  0.26494246  0.47513319    -0.66700
Ni131      Ni  0.16855394  0.17503540  0.11188598     1.34900
C132        C  0.25323180  0.23000817  0.46777984     0.84400
O133        O  0.16474997  0.27955038  0.07621146    -0.79700
O134        O  0.14305816  0.22427582  0.12288084    -0.89900
C135        C  0.27027194  0.34717162  0.05468769     0.84000
O136        O  0.21392730  0.18416565  0.15906298    -0.68100
O137        O  0.34839653  0.23834418  0.02801691    -0.87400
C138        C  0.23242450  0.22085881  0.16842327     0.84800
C139        C  0.13501116  0.25695452  0.09643474     1.06400
H140        H  0.29673549  0.24901131  0.09821775     0.38200
O141        O  0.27883511  0.24840975  0.07025545    -1.10100
O142        O  0.24654140  0.19901596  0.49798584    -0.66700
Ni143      Ni  0.25863396  0.18941865  0.06194658     1.26300
O144        O  0.23333966  0.25426403  0.13989695    -0.67000
O145        O  0.31724119  0.17530016  0.05849763    -0.79200
C146        C  0.20719116  0.10617170  0.07810532     0.84200
O147        O  0.23575135  0.12987065  0.05662621    -0.66400
Ni148      Ni  0.31187715  0.28225963  0.02672331     1.27400
Ni149      Ni  0.22294031  0.26517716  0.07546634     1.26100
H150        H  0.18394472  0.20565587  0.03925474     0.38700
O151        O  0.21836431  0.12685701  0.37173014    -0.81200
O152        O  0.24246770  0.32162213  0.33022222    -0.65900
O153        O  0.20614436  0.20333065  0.32006700    -1.12500
C154        C  0.35273643  0.20375696  0.28876792     1.05700
O155        O  0.26514276  0.32417672  0.26507634    -0.79100
O156        O  0.27695952  0.26050965  0.22041803    -0.66700
Ni157      Ni  0.17688583  0.16868874  0.36457458     1.34900
C158        C  0.25261583  0.22592927  0.21428473     0.84400
O159        O  0.16543418  0.27454327  0.33653850    -0.79700
O160        O  0.13355632  0.20885930  0.35907781    -0.89900
C161        C  0.25705247  0.34302666  0.29675005     0.84000
O162        O  0.20725985  0.19116874  0.41592277    -0.68100
O163        O  0.35050464  0.24390977  0.27646625    -0.87400
C164        C  0.23286059  0.22499508  0.42204157     0.84800
C165        C  0.13198495  0.24916483  0.34676118     1.06400
H166        H  0.29895786  0.25013318  0.34297184     0.38200
O167        O  0.27900271  0.24870847  0.31635629    -1.10100
O168        O  0.24449467  0.19674487  0.24575347    -0.66700
Ni169      Ni  0.26241087  0.18974160  0.30930235     1.26300
O170        O  0.24141660  0.25418742  0.39074540    -0.67000
O171        O  0.32014244  0.17791931  0.30041843    -0.79200
C172        C  0.22876050  0.10876917  0.34048808     0.84200
O173        O  0.24358960  0.13059258  0.30737764    -0.66400
Ni174      Ni  0.30723377  0.28345059  0.27153260     1.27400
Ni175      Ni  0.22303612  0.26233986  0.32755037     1.26100
H176        H  0.18651077  0.20213942  0.29321470     0.38700
C177        C  0.44394450  0.13160452  0.05130362     0.02800
C178        C  0.40121993  0.14282317  0.04751370    -0.13300
C179        C  0.39428410  0.18541902  0.04919494     0.00300
C180        C  0.43051222  0.21676354  0.55621283    -0.11900
C181        C  0.47407563  0.20755293  0.55923338     0.02800
C182        C  0.48018547  0.16384205  0.55660701    -0.12100
H183        H  0.37352118  0.11825149  0.04427033     0.08400
H184        H  0.42390540  0.24854561  0.56103065     0.05900
H185        H  0.01265675  0.15403608  0.55977074     0.05800
C186        C  0.39685851  0.18887995  0.79163136     0.02800
C187        C  0.43223149  0.22037485  0.79929060    -0.13300
C188        C  0.47510558  0.21260281  0.79714346     0.00300
C189        C  0.48254803  0.17279493  0.78718072    -0.11900
C190        C  0.44982055  0.13780890  0.78898897     0.02800
C191        C  0.40576200  0.14597924  0.78949635    -0.11300
H192        H  0.42609454  0.25113792  0.80803841     0.08400
H193        H  0.01548808  0.16816071  0.78220010     0.05900
H194        H  0.37948387  0.11984774  0.78898489     0.05800
C195        C  0.33674032  0.45821353  0.55145260     0.02800
C196        C  0.30287747  0.48350217  0.55438034    -0.13300
C197        C  0.25919580  0.46473912  0.55941995     0.00300
C198        C  0.25107444  0.41947248  0.56311701    -0.11900
C199        C  0.28290541  0.39395498  0.55702889     0.02800
C200        C  0.32579314  0.41339850  0.55085863    -0.11300
H201        H  0.31176545  0.01778861  0.55335436     0.08400
H202        H  0.21963353  0.40302650  0.57002924     0.05900
H203        H  0.35107571  0.39336920  0.54823160     0.05800
C204        C  0.32657764  0.44728931  0.78703809     0.02800
C205        C  0.30040222  0.47621039  0.79820791    -0.13300
C206        C  0.25776434  0.46186391  0.80893562     0.00300
C207        C  0.24348461  0.41713626  0.81005696    -0.11900
C208        C  0.26902377  0.38936341  0.79544978     0.02800
C209        C  0.30965296  0.40501366  0.78252015    -0.11300
H210        H  0.31422086  0.00934963  0.79860214     0.08400
H211        H  0.21295651  0.40339908  0.82205422     0.05900
H212        H  0.33019035  0.38275426  0.77357812     0.05800
O213        O  0.02677977  0.49832615  0.96259972    -0.81200
O214        O  0.02284555  0.44244621  0.65240627    -0.65900
O215        O  0.49036922  0.45069243  0.52926993    -1.12500
C216        C  0.44981075  0.08532438  0.55879347     1.05700
O217        O  0.45397022  0.45276902  0.65208364    -0.79100
O218        O  0.39566208  0.49235787  0.59506561    -0.66700
Ni219      Ni  0.02914018  0.44096987  0.49028717     1.34900
C220        C  0.38368789  0.47771508  0.55847558     0.84400
O221        O  0.02853770  0.38890470  0.58971540    -0.79700
O222        O  0.03151883  0.38302898  0.51780601    -0.89900
C223        C  0.48978999  0.44277915  0.67284362     0.84000
O224        O  0.08507661  0.45968632  0.52041816    -0.68100
O225        O  0.44926780  0.06824888  0.59852223    -0.87400
C226        C  0.09654485  0.47570921  0.55643179     0.84800
C227        C  0.03223753  0.36706686  0.55797981     1.06400
H228        H  0.01512288  0.02260896  0.59049416     0.38200
O229        O  0.48999681  0.00146352  0.58601150    -1.10100
O230        O  0.41015055  0.47908429  0.52948995    -0.66700
Ni231      Ni  0.47064856  0.00675343  0.52555742     1.26300
O232        O  0.06990063  0.47465787  0.58508826    -0.67000
O233        O  0.45372893  0.06440296  0.02632588    -0.79200
C234        C  0.49126606  0.50960723  0.94210825     0.84200
O235        O  0.45841188  0.51071681  0.96265216    -0.66400
Ni236      Ni  0.45148818  0.01032973  0.62537202     1.27400
Ni237      Ni  0.01020320  0.44588416  0.58974261     1.26100
H238        H  0.46506702  0.42970261  0.52503856     0.38700
O239        O  0.39331318  0.43797431  0.76376448    -0.81200
O240        O  0.08890513  0.47407772  0.79937810    -0.65900
O241        O  0.47030368  0.44323014  0.81759258    -1.12500
C242        C  0.46616926  0.09478413  0.79744343     1.05700
O243        O  0.08872852  0.01521193  0.85169244    -0.79100
O244        O  0.02489812  0.04287251  0.88299078    -0.66700
Ni245      Ni  0.43568283  0.39993231  0.78850075     1.34900
C246        C  0.49096301  0.52069093  0.89506076     0.84400
O247        O  0.04449278  0.39763752  0.81552933    -0.79700
O248        O  0.47752972  0.36076987  0.81063137    -0.89900
C249        C  0.10927882  0.49812251  0.82677921     0.84000
O250        O  0.45861042  0.40998074  0.73388778    -0.68100
O251        O  0.00744242  0.09543214  0.80846941    -0.87400
C252        C  0.49093045  0.43389572  0.72006147     0.84800
C253        C  0.01936241  0.36237306  0.81519064     1.06400
H254        H  0.01439544  0.02442236  0.76659967     0.38200
O255        O  0.01350129  0.01391401  0.79724069    -1.10100
O256        O  0.46068346  0.50383122  0.86885155    -0.66700
Ni257      Ni  0.45390074  0.50096343  0.80628968     1.26300
O258        O  0.02039231  0.45395345  0.74460510    -0.67000
O259        O  0.44030438  0.05997234  0.79538865    -0.79200
C260        C  0.37341787  0.45794442  0.78682398     0.84200
O261        O  0.39430520  0.48386837  0.81215588    -0.66400
Ni262      Ni  0.04817781  0.05516908  0.82891434     1.27400
Ni263      Ni  0.02977513  0.45633095  0.80693296     1.26100
H264        H  0.47029359  0.43384016  0.84856807     0.38700
C265        C  0.03907347  0.32107146  0.56780514     0.02800
C266        C  0.00496006  0.28799356  0.55876480    -0.13300
C267        C  0.01163025  0.24352330  0.56685282     0.00300
C268        C  0.05473918  0.23433933  0.58225732    -0.11900
C269        C  0.08955642  0.26758575  0.58816686     0.02800
C270        C  0.08126094  0.31053636  0.58169494    -0.11300
H271        H  0.47372130  0.29787834  0.54454588     0.08400
H272        H  0.06212307  0.20140726  0.58848749     0.05900
H273        H  0.10798715  0.33594331  0.58617175     0.05800
C274        C  0.08767961  0.26491954  0.83863689     0.02800
C275        C  0.05230361  0.23357483  0.82933432    -0.13300
C276        C  0.01225760  0.24511681  0.80831327     0.00300
C277        C  0.50665870  0.28813690  0.79944538    -0.11900
C278        C  0.03679682  0.31997890  0.81716424     0.02800
C279        C  0.07941353  0.30905963  0.83419577    -0.11300
H280        H  0.05664983  0.19980372  0.83632401     0.08400
H281        H  0.47701322  0.29681996  0.77972887     0.05900
H282        H  0.10515138  0.33386824  0.84366618     0.05800
C283        C  0.14315563  0.99593951  0.56419646     0.02800
C284        C  0.17758845  0.47296482  0.55779897    -0.13300
C285        C  0.22220421  0.49127393  0.56213940     0.00300
C286        C  0.23079810  0.03521087  0.56882483    -0.11900
C287        C  0.19703774  0.05957147  0.57271493     0.02800
C288        C  0.15344539  0.03932779  0.57221384    -0.11300
H289        H  0.16851973  0.44075378  0.54874779     0.08400
H290        H  0.26371979  0.05116338  0.57218836     0.05900
H291        H  0.12723757  0.05801129  0.57547740     0.05800
C292        C  0.15620250  0.00840753  0.82962443     0.02800
C293        C  0.18327409  0.48098606  0.81731761    -0.13300
C294        C  0.22879503  0.49279888  0.81948342     0.00300
C295        C  0.24522252  0.03502369  0.82972978    -0.11900
C296        C  0.21691418  0.06273363  0.83978848     0.02800
C297        C  0.17335386  0.04840218  0.84217509    -0.11300
H298        H  0.16824596  0.45095675  0.80577753     0.08400
H299        H  0.27933173  0.04720050  0.83004403     0.05900
H300        H  0.15173209  0.07046807  0.84953789     0.05800
O301        O  0.18597112  0.12052905  0.60457014    -0.81200
O302        O  0.24693628  0.32433513  0.58209104    -0.65900
O303        O  0.20205615  0.20630805  0.56708656    -1.12500
C304        C  0.35008475  0.19963111  0.54452743     1.05700
O305        O  0.28063114  0.33102216  0.52254002    -0.79100
O306        O  0.27661342  0.26494242  0.97513316    -0.66700
Ni307      Ni  0.16855393  0.17503544  0.61188595     1.34900
C308        C  0.25323177  0.23000816  0.96777978     0.84400
O309        O  0.16474993  0.27955039  0.57621137    -0.79700
O310        O  0.14305816  0.22427587  0.62288081    -0.89900
C311        C  0.27027193  0.34717168  0.55468764     0.84000
O312        O  0.21392731  0.18416570  0.65906292    -0.68100
O313        O  0.34839651  0.23834419  0.52801689    -0.87400
C314        C  0.23242448  0.22085887  0.66842322     0.84800
C315        C  0.13501114  0.25695457  0.59643471     1.06400
H316        H  0.29673547  0.24901140  0.59821776     0.38200
O317        O  0.27883511  0.24840981  0.57025546    -1.10100
O318        O  0.24654133  0.19901595  0.99798579    -0.66700
Ni319      Ni  0.25863398  0.18941869  0.56194662     1.26300
O320        O  0.23333961  0.25426410  0.63989690    -0.67000
O321        O  0.31724122  0.17530021  0.55849771    -0.79200
C322        C  0.20719119  0.10617174  0.57810532     0.84200
O323        O  0.23575141  0.12987068  0.55662626    -0.66400
Ni324      Ni  0.31187717  0.28225966  0.52672331     1.27400
Ni325      Ni  0.22294028  0.26517720  0.57546629     1.26100
H326        H  0.18394474  0.20565588  0.53925472     0.38700
O327        O  0.21836430  0.12685705  0.87173012    -0.81200
O328        O  0.24246768  0.32162214  0.83022212    -0.65900
O329        O  0.20614434  0.20333066  0.82006692    -1.12500
C330        C  0.35273643  0.20375696  0.78876791     1.05700
O331        O  0.26514278  0.32417675  0.76507626    -0.79100
O332        O  0.27695952  0.26050968  0.72041798    -0.66700
Ni333      Ni  0.17688579  0.16868876  0.86457450     1.34900
C334        C  0.25261583  0.22592930  0.71428467     0.84400
O335        O  0.16543417  0.27454329  0.83653843    -0.79700
O336        O  0.13355629  0.20885931  0.85907767    -0.89900
C337        C  0.25705247  0.34302667  0.79674998     0.84000
O338        O  0.20725974  0.19116879  0.91592271    -0.68100
O339        O  0.35050464  0.24390977  0.77646622    -0.87400
C340        C  0.23286054  0.22499510  0.92204150     0.84800
C341        C  0.13198493  0.24916485  0.84676110     1.06400
H342        H  0.29895782  0.25013319  0.84297175     0.38200
O343        O  0.27900269  0.24870847  0.81635621    -1.10100
O344        O  0.24449467  0.19674488  0.74575339    -0.66700
Ni345      Ni  0.26241085  0.18974160  0.80930229     1.26300
O346        O  0.24141660  0.25418740  0.89074532    -0.67000
O347        O  0.32014243  0.17791930  0.80041839    -0.79200
C348        C  0.22876051  0.10876918  0.84048808     0.84200
O349        O  0.24358959  0.13059257  0.80737761    -0.66400
Ni350      Ni  0.30723378  0.28345060  0.77153254     1.27400
Ni351      Ni  0.22303609  0.26233987  0.82755029     1.26100
H352        H  0.18651076  0.20213942  0.79321461     0.38700
C353        C  0.44393237  0.63161580  0.55122483     0.02800
C354        C  0.40120667  0.64283413  0.54743913    -0.13300
C355        C  0.39427055  0.68542744  0.54914222     0.00300
C356        C  0.43049905  0.71676816  0.05617263    -0.11900
C357        C  0.47406191  0.70755790  0.05918709     0.02800
C358        C  0.48017203  0.66385161  0.05654061    -0.12100
H359        H  0.37350801  0.61826338  0.54418841     0.08400
H360        H  0.42389342  0.74854602  0.06100774     0.05900
H361        H  0.01264345  0.65404641  0.05970206     0.05800
C362        C  0.39686306  0.68890385  0.29158520     0.02800
C363        C  0.43223897  0.72040476  0.29921103    -0.13300
C364        C  0.47511146  0.71262866  0.29705672     0.00300
C365        C  0.48254894  0.67281621  0.28710169    -0.11900
C366        C  0.44982392  0.63782977  0.28893396     0.02800
C367        C  0.40576737  0.64600049  0.28946072    -0.11300
H368        H  0.42610671  0.75117248  0.30795029     0.08400
H369        H  0.01548626  0.66817857  0.28211457     0.05900
H370        H  0.37949137  0.61986660  0.28897312     0.05800
C371        C  0.33673933  0.95820174  0.05151691     0.02800
C372        C  0.30287552  0.98349367  0.05443125    -0.13300
C373        C  0.25918921  0.96473419  0.05945563     0.00300
C374        C  0.25106452  0.91946783  0.06314810    -0.11900
C375        C  0.28289814  0.89394848  0.05707282     0.02800
C376        C  0.32579138  0.91338718  0.05092462    -0.11300
H377        H  0.31176389  0.51779786  0.05330168     0.08400
H378        H  0.21961943  0.90302219  0.07004514     0.05900
H379        H  0.35107501  0.89335517  0.04830906     0.05800
C380        C  0.32657042  0.94728439  0.28705546     0.02800
C381        C  0.30040285  0.97620215  0.29824637    -0.13300
C382        C  0.25775959  0.96185922  0.30896221     0.00300
C383        C  0.24347277  0.91713455  0.31006210    -0.11900
C384        C  0.26900323  0.88936733  0.29543393     0.02800
C385        C  0.30963157  0.90501852  0.28250231    -0.11300
H386        H  0.31420705  0.50936463  0.29853528     0.08400
H387        H  0.21294691  0.90339340  0.32206113     0.05900
H388        H  0.33016122  0.88276174  0.27354221     0.05800
O389        O  0.02676805  0.99833307  0.46265910    -0.81200
O390        O  0.02285480  0.94242497  0.15245892    -0.65900
O391        O  0.49036060  0.95068576  0.02932133    -1.12500
C392        C  0.44980424  0.58533623  0.05871925     1.05700
O393        O  0.45398174  0.95274826  0.15214618    -0.79100
O394        O  0.39566463  0.99232730  0.09514060    -0.66700
Ni395      Ni  0.02912871  0.94097311  0.99033092     1.34900
C396        C  0.38368683  0.97770087  0.05854329     0.84400
O397        O  0.02853579  0.88889226  0.08975133    -0.79700
O398        O  0.03150741  0.88302972  0.01783674    -0.89900
C399        C  0.48980352  0.94276106  0.17290233     0.84000
O400        O  0.08506747  0.95968419  0.02045917    -0.68100
O401        O  0.44927367  0.56826900  0.09845164    -0.87400
C402        C  0.09653884  0.97570434  0.05647359     0.84800
C403        C  0.03222934  0.86706091  0.05800840     1.06400
H404        H  0.01512274  0.52262408  0.09043109     0.38200
O405        O  0.48999682  0.50147805  0.08595036    -1.10100
O406        O  0.41014507  0.97908577  0.02955078    -0.66700
Ni407      Ni  0.47065160  0.50675919  0.02549656     1.26300
O408        O  0.06989832  0.97464744  0.08513448    -0.67000
O409        O  0.45371974  0.56440807  0.52625530    -0.79200
C410        C  0.49125346  0.00960793  0.44216594     0.84200
O411        O  0.45840123  0.01071881  0.46271182    -0.66400
Ni412      Ni  0.45148535  0.51035098  0.12530478     1.27400
Ni413      Ni  0.01020267  0.94587027  0.08979315     1.26100
H414        H  0.46505723  0.92969745  0.02508900     0.38700
O415        O  0.39331608  0.93795297  0.26381068    -0.81200
O416        O  0.08890761  0.97406872  0.29944869    -0.65900
O417        O  0.47030304  0.94321286  0.31765002    -1.12500
C418        C  0.46617564  0.59480515  0.29739170     1.05700
O419        O  0.08872669  0.51521705  0.35162461    -0.79100
O420        O  0.02490997  0.54288306  0.38293445    -0.66700
Ni421      Ni  0.43568747  0.89991439  0.28855433     1.34900
C422        C  0.49095016  0.02068211  0.39511698     0.84400
O423        O  0.04449488  0.89762785  0.31558452    -0.79700
O424        O  0.47753357  0.86075386  0.31069013    -0.89900
C425        C  0.10928118  0.99811311  0.32685071     0.84000
O426        O  0.45862590  0.90996202  0.23394632    -0.68100
O427        O  0.00744963  0.59545277  0.30841577    -0.87400
C428        C  0.49094548  0.93387923  0.22012127     0.84800
C429        C  0.01936627  0.86236317  0.31523620     1.06400
H430        H  0.01439577  0.52443818  0.26653693     0.38200
O431        O  0.01350299  0.51392964  0.29717807    -1.10100
O432        O  0.46067345  0.00381590  0.36890837    -0.66700
Ni433      Ni  0.45389700  0.00094404  0.30634580     1.26300
O434        O  0.02040151  0.95394340  0.24466592    -0.67000
O435        O  0.44031122  0.55999312  0.29533660    -0.79200
C436        C  0.37341586  0.95792614  0.28686328     0.84200
O437        O  0.39429989  0.98384448  0.31220355    -0.66400
Ni438      Ni  0.04818256  0.55518229  0.32885384     1.27400
Ni439      Ni  0.02977616  0.95631823  0.30699539     1.26100
H440        H  0.47029024  0.93382279  0.34862525     0.38700
C441        C  0.03906113  0.82106482  0.06782065     0.02800
C442        C  0.00494910  0.78799294  0.05875576    -0.13300
C443        C  0.01161664  0.74352214  0.06682707     0.00300
C444        C  0.05472268  0.73433188  0.08223567    -0.11900
C445        C  0.08953986  0.76757426  0.08816664     0.02800
C446        C  0.08124586  0.81052501  0.08171581    -0.11300
H447        H  0.47371351  0.79788249  0.04453196     0.08400
H448        H  0.06210490  0.70139882  0.08845219     0.05900
H449        H  0.10797192  0.83592901  0.08620981     0.05800
C450        C  0.08767578  0.76491332  0.33862559     0.02800
C451        C  0.05230554  0.73357670  0.32927720    -0.13300
C452        C  0.01226893  0.74513274  0.30824168     0.00300
C453        C  0.50667768  0.78815659  0.29939936    -0.11900
C454        C  0.03680333  0.81997855  0.31717022     0.02800
C455        C  0.07941102  0.80905049  0.33421717    -0.11300
H456        H  0.05665107  0.69980411  0.33624620     0.08400
H457        H  0.47704249  0.79685686  0.27967455     0.05900
H458        H  0.10514238  0.83384984  0.34372639     0.05800
C459        C  0.14316191  0.49594240  0.06415948     0.02800
C460        C  0.17758085  0.97296147  0.05783400    -0.13300
C461        C  0.22219670  0.99127147  0.06216636     0.00300
C462        C  0.23080609  0.53521068  0.06880902    -0.11900
C463        C  0.19704418  0.55957184  0.07269275     0.02800
C464        C  0.15345110  0.53932928  0.07218227    -0.11300
H465        H  0.16850957  0.94074918  0.04878800     0.08400
H466        H  0.26372885  0.55116029  0.07218395     0.05900
H467        H  0.12724259  0.55801304  0.07544298     0.05800
C468        C  0.15619879  0.50841925  0.32955301     0.02800
C469        C  0.18327349  0.98097592  0.31737831    -0.13300
C470        C  0.22879358  0.99279205  0.31952400     0.00300
C471        C  0.24522415  0.53502660  0.32970227    -0.11900
C472        C  0.21691145  0.56273843  0.33974992     0.02800
C473        C  0.17334653  0.54841264  0.34210905    -0.11300
H474        H  0.16824049  0.95094715  0.30584144     0.08400
H475        H  0.27933753  0.54719542  0.33003838     0.05900
H476        H  0.15172144  0.57047983  0.34946278     0.05800
O477        O  0.18598550  0.62052311  0.10456313    -0.81200
O478        O  0.24691798  0.82432763  0.08210481    -0.65900
O479        O  0.20204685  0.70630590  0.06707639    -1.12500
C480        C  0.35007182  0.69964076  0.04449127     1.05700
O481        O  0.28061652  0.83103230  0.02255533    -0.79100
O482        O  0.27659293  0.76496347  0.47512411    -0.66700
Ni483      Ni  0.16855005  0.67502301  0.11187546     1.34900
C484        C  0.25322059  0.73002475  0.46776646     0.84400
O485        O  0.16473414  0.77954136  0.07621487    -0.79700
O486        O  0.14303527  0.72425321  0.12286795    -0.89900
C487        C  0.27025967  0.84716992  0.05471173     0.84000
O488        O  0.21391613  0.68416160  0.15905852    -0.68100
O489        O  0.34838099  0.73835718  0.02799157    -0.87400
C490        C  0.23241192  0.72085558  0.16841750     0.84800
C491        C  0.13499351  0.75694042  0.09643203     1.06400
H492        H  0.29672457  0.74901011  0.09820954     0.38200
O493        O  0.27882347  0.74841195  0.07024744    -1.10100
O494        O  0.24653359  0.69902953  0.49796958    -0.66700
Ni495      Ni  0.25862565  0.68942242  0.06192812     1.26300
O496        O  0.23332620  0.75425875  0.13989098    -0.67000
O497        O  0.31723238  0.67530810  0.05846772    -0.79200
C498        C  0.20719556  0.60617155  0.07808574     0.84200
O499        O  0.23574469  0.62987603  0.05659736    -0.66400
Ni500      Ni  0.31186157  0.78227094  0.02671728     1.27400
Ni501      Ni  0.22292596  0.76517379  0.07546410     1.26100
H502        H  0.18393388  0.70565640  0.03924522     0.38700
O503        O  0.21835720  0.62685069  0.37171239    -0.81200
O504        O  0.24244843  0.82162692  0.33020482    -0.65900
O505        O  0.20614188  0.70333154  0.32005858    -1.12500
C506        C  0.35273866  0.70377760  0.28874544     1.05700
O507        O  0.26512078  0.82418080  0.26505891    -0.79100
O508        O  0.27694572  0.76051454  0.22040609    -0.66700
Ni509      Ni  0.17688418  0.66868810  0.36456683     1.34900
C510        C  0.25260556  0.72593119  0.21427653     0.84400
O511        O  0.16542383  0.77454042  0.33652271    -0.79700
O512        O  0.13355449  0.70885837  0.35908080    -0.89900
C513        C  0.25703074  0.84303134  0.29673186     0.84000
O514        O  0.20726913  0.69117016  0.41590936    -0.68100
O515        O  0.35049968  0.74393028  0.27644866    -0.87400
C516        C  0.23285553  0.72500611  0.42202783     0.84800
C517        C  0.13197959  0.74916161  0.34675624     1.06400
H518        H  0.29895101  0.75014795  0.34296020     0.38200
O519        O  0.27899608  0.74871902  0.31634489    -1.10100
O520        O  0.24449027  0.69674813  0.24574692    -0.66700
Ni521      Ni  0.26241279  0.68975043  0.30929303     1.26300
O522        O  0.24140278  0.75420111  0.39073179    -0.67000
O523        O  0.32014880  0.67793664  0.30040331    -0.79200
C524        C  0.22876075  0.60877164  0.34046711     0.84200
O525        O  0.24359882  0.63060164  0.30736519    -0.66400
Ni526      Ni  0.30722023  0.78346292  0.27151677     1.27400
Ni527      Ni  0.22302591  0.76234344  0.32753665     1.26100
H528        H  0.18650802  0.70213709  0.29320673     0.38700
C529        C  0.44393238  0.63161575  0.05122483     0.02800
C530        C  0.40120669  0.64283408  0.04743914    -0.13300
C531        C  0.39427056  0.68542739  0.04914219     0.00300
C532        C  0.43049905  0.71676822  0.55617267    -0.11900
C533        C  0.47406191  0.70755796  0.55918711     0.02800
C534        C  0.48017202  0.66385166  0.55654061    -0.12100
H535        H  0.37350803  0.61826333  0.04418844     0.08400
H536        H  0.42389343  0.74854608  0.56100780     0.05900
H537        H  0.01264342  0.65404647  0.55970205     0.05800
C538        C  0.39686304  0.68890381  0.79158529     0.02800
C539        C  0.43223897  0.72040469  0.79921120    -0.13300
C540        C  0.47511144  0.71262862  0.79705682     0.00300
C541        C  0.48254892  0.67281619  0.78710172    -0.11900
C542        C  0.44982391  0.63782975  0.78893400     0.02800
C543        C  0.40576736  0.64600046  0.78946075    -0.11300
H544        H  0.42610671  0.75117239  0.80795053     0.08400
H545        H  0.01548624  0.66817855  0.78211461     0.05900
H546        H  0.37949136  0.61986657  0.78897311     0.05800
C547        C  0.33673933  0.95820171  0.55151692     0.02800
C548        C  0.30287552  0.98349365  0.55443129    -0.13300
C549        C  0.25918920  0.96473418  0.55945564     0.00300
C550        C  0.25106449  0.91946782  0.56314806    -0.11900
C551        C  0.28289811  0.89394848  0.55707276     0.02800
C552        C  0.32579136  0.91338716  0.55092459    -0.11300
H553        H  0.31176388  0.51779793  0.55330149     0.08400
H554        H  0.21961940  0.90302219  0.57004508     0.05900
H555        H  0.35107499  0.89335515  0.54830903     0.05800
C556        C  0.32657046  0.94728440  0.78705554     0.02800
C557        C  0.30040288  0.97620215  0.79824645    -0.13300
C558        C  0.25775961  0.96185922  0.80896226     0.00300
C559        C  0.24347279  0.91713455  0.81006212    -0.11900
C560        C  0.26900326  0.88936733  0.79543397     0.02800
C561        C  0.30963161  0.90501853  0.78250238    -0.11300
H562        H  0.31420703  0.50936465  0.79853516     0.08400
H563        H  0.21294691  0.90339341  0.82206113     0.05900
H564        H  0.33016126  0.88276176  0.77354227     0.05800
O565        O  0.02676806  0.99833300  0.96265909    -0.81200
O566        O  0.02285483  0.94242508  0.65245891    -0.65900
O567        O  0.49036060  0.95068584  0.52932134    -1.12500
C568        C  0.44980423  0.58533629  0.55871925     1.05700
O569        O  0.45398177  0.95274828  0.65214615    -0.79100
O570        O  0.39566461  0.99232727  0.59514063    -0.66700
Ni571      Ni  0.02912866  0.94097317  0.49033093     1.34900
C572        C  0.38368682  0.97770085  0.55854331     0.84400
O573        O  0.02853580  0.88889235  0.58975133    -0.79700
O574        O  0.03150730  0.88302977  0.51783674    -0.89900
C575        C  0.48980356  0.94276113  0.67290230     0.84000
O576        O  0.08506744  0.95968422  0.52045919    -0.68100
O577        O  0.44927365  0.56826905  0.59845164    -0.87400
C578        C  0.09653882  0.97570442  0.55647358     0.84800
C579        C  0.03222930  0.86706098  0.55800841     1.06400
H580        H  0.01512273  0.52262414  0.59043111     0.38200
O581        O  0.48999685  0.50147811  0.58595037    -1.10100
O582        O  0.41014506  0.97908580  0.52955078    -0.66700
Ni583      Ni  0.47065163  0.50675926  0.52549656     1.26300
O584        O  0.06989829  0.97464757  0.58513445    -0.67000
O585        O  0.45371973  0.56440800  0.02625529    -0.79200
C586        C  0.49125347  0.00960785  0.94216594     0.84200
O587        O  0.45840123  0.01071872  0.96271181    -0.66400
Ni588      Ni  0.45148534  0.51035102  0.62530477     1.27400
Ni589      Ni  0.01020266  0.94587036  0.58979315     1.26100
H590        H  0.46505723  0.92969754  0.52508900     0.38700
O591        O  0.39331607  0.93795302  0.76381066    -0.81200
O592        O  0.08890764  0.97406872  0.79944874    -0.65900
O593        O  0.47030306  0.94321289  0.81764995    -1.12500
C594        C  0.46617562  0.59480514  0.79739173     1.05700
O595        O  0.08872671  0.51521705  0.85162463    -0.79100
O596        O  0.02490992  0.54288301  0.88293447    -0.66700
Ni597      Ni  0.43568747  0.89991445  0.78855426     1.34900
C598        C  0.49095020  0.02068207  0.89511699     0.84400
O599        O  0.04449487  0.89762786  0.81558455    -0.79700
O600        O  0.47753356  0.86075389  0.81068998    -0.89900
C601        C  0.10928120  0.99811310  0.82685077     0.84000
O602        O  0.45862588  0.90996216  0.73394626    -0.68100
O603        O  0.00744961  0.59545276  0.80841583    -0.87400
C604        C  0.49094551  0.93387931  0.72012124     0.84800
C605        C  0.01936626  0.86236319  0.81523614     1.06400
H606        H  0.01439577  0.52443823  0.76653694     0.38200
O607        O  0.01350298  0.51392966  0.79717807    -1.10100
O608        O  0.46067351  0.00381588  0.86890834    -0.66700
Ni609      Ni  0.45389707  0.00094410  0.80634576     1.26300
O610        O  0.02040156  0.95394341  0.74466592    -0.67000
O611        O  0.44031120  0.55999311  0.79533664    -0.79200
C612        C  0.37341589  0.95792619  0.78686328     0.84200
O613        O  0.39429995  0.98384458  0.81220348    -0.66400
Ni614      Ni  0.04818254  0.55518228  0.82885388     1.27400
Ni615      Ni  0.02977617  0.95631825  0.80699540     1.26100
H616        H  0.47029024  0.93382281  0.84862517     0.38700
C617        C  0.03906108  0.82106487  0.56782067     0.02800
C618        C  0.00494906  0.78799300  0.55875580    -0.13300
C619        C  0.01161660  0.74352219  0.56682710     0.00300
C620        C  0.05472263  0.73433193  0.58223570    -0.11900
C621        C  0.08953982  0.76757430  0.58816665     0.02800
C622        C  0.08124581  0.81052505  0.58171581    -0.11300
H623        H  0.47371350  0.79788255  0.54453196     0.08400
H624        H  0.06210484  0.70139887  0.58845223     0.05900
H625        H  0.10797187  0.83592904  0.58620980     0.05800
C626        C  0.08767577  0.76491332  0.83862563     0.02800
C627        C  0.05230553  0.73357669  0.82927725    -0.13300
C628        C  0.01226892  0.74513273  0.80824173     0.00300
C629        C  0.50667764  0.78815656  0.79939938    -0.11900
C630        C  0.03680331  0.81997855  0.81717020     0.02800
C631        C  0.07941099  0.80905049  0.83421718    -0.11300
H632        H  0.05665107  0.69980411  0.83624625     0.08400
H633        H  0.47704244  0.79685680  0.77967459     0.05900
H634        H  0.10514235  0.83384984  0.84372640     0.05800
C635        C  0.14316193  0.49594239  0.56415951     0.02800
C636        C  0.17758083  0.97296149  0.55783404    -0.13300
C637        C  0.22219669  0.99127148  0.56216639     0.00300
C638        C  0.23080611  0.53521070  0.56880906    -0.11900
C639        C  0.19704419  0.55957183  0.57269281     0.02800
C640        C  0.15345111  0.53932927  0.57218233    -0.11300
H641        H  0.16850953  0.94074919  0.54878809     0.08400
H642        H  0.26372888  0.55116031  0.57218402     0.05900
H643        H  0.12724260  0.55801301  0.57544306     0.05800
C644        C  0.15619881  0.50841921  0.82955304     0.02800
C645        C  0.18327351  0.98097593  0.81737832    -0.13300
C646        C  0.22879360  0.99279205  0.81952403     0.00300
C647        C  0.24522417  0.53502656  0.82970229    -0.11900
C648        C  0.21691146  0.56273840  0.83974990     0.02800
C649        C  0.17334655  0.54841261  0.84210905    -0.11300
H650        H  0.16824051  0.95094717  0.80584142     0.08400
H651        H  0.27933756  0.54719538  0.83003841     0.05900
H652        H  0.15172146  0.57047981  0.84946275     0.05800
O653        O  0.18598550  0.62052312  0.60456318    -0.81200
O654        O  0.24691793  0.82432765  0.58210477    -0.65900
O655        O  0.20204683  0.70630591  0.56707641    -1.12500
C656        C  0.35007182  0.69964081  0.54449132     1.05700
O657        O  0.28061644  0.83103228  0.52255528    -0.79100
O658        O  0.27659290  0.76496349  0.97512410    -0.66700
Ni659      Ni  0.16855003  0.67502302  0.61187548     1.34900
C660        C  0.25322060  0.73002475  0.96776645     0.84400
O661        O  0.16473410  0.77954137  0.57621485    -0.79700
O662        O  0.14303523  0.72425322  0.62286794    -0.89900
C663        C  0.27025962  0.84716992  0.55471167     0.84000
O664        O  0.21391613  0.68416165  0.65905852    -0.68100
O665        O  0.34838100  0.73835724  0.52799164    -0.87400
C666        C  0.23241192  0.72085564  0.66841750     0.84800
C667        C  0.13499347  0.75694044  0.59643202     1.06400
H668        H  0.29672454  0.74901014  0.59820955     0.38200
O669        O  0.27882344  0.74841198  0.57024745    -1.10100
O670        O  0.24653362  0.69902951  0.99796955    -0.66700
Ni671      Ni  0.25862564  0.68942244  0.56192815     1.26300
O672        O  0.23332618  0.75425881  0.63989098    -0.67000
O673        O  0.31723238  0.67530814  0.55846774    -0.79200
C674        C  0.20719556  0.60617156  0.57808580     0.84200
O675        O  0.23574470  0.62987603  0.55659741    -0.66400
Ni676      Ni  0.31186154  0.78227097  0.52671729     1.27400
Ni677      Ni  0.22292592  0.76517381  0.57546410     1.26100
H678        H  0.18393385  0.70565638  0.53924524     0.38700
O679        O  0.21835719  0.62685066  0.87171233    -0.81200
O680        O  0.24244843  0.82162691  0.83020482    -0.65900
O681        O  0.20614186  0.70333153  0.82005856    -1.12500
C682        C  0.35273865  0.70377756  0.78874548     1.05700
O683        O  0.26512085  0.82418080  0.76505894    -0.79100
O684        O  0.27694579  0.76051454  0.72040610    -0.66700
Ni685      Ni  0.17688418  0.66868809  0.86456683     1.34900
C686        C  0.25260558  0.72593122  0.71427652     0.84400
O687        O  0.16542382  0.77454042  0.83652269    -0.79700
O688        O  0.13355450  0.70885838  0.85908085    -0.89900
C689        C  0.25703077  0.84303133  0.79673188     0.84000
O690        O  0.20726921  0.69117011  0.91590933    -0.68100
O691        O  0.35049971  0.74393025  0.77644875    -0.87400
C692        C  0.23285555  0.72500609  0.92202781     0.84800
C693        C  0.13197959  0.74916162  0.84675626     1.06400
H694        H  0.29895098  0.75014788  0.84296022     0.38200
O695        O  0.27899607  0.74871898  0.81634489    -1.10100
O696        O  0.24449024  0.69674816  0.74574689    -0.66700
Ni697      Ni  0.26241276  0.68975040  0.80929299     1.26300
O698        O  0.24140276  0.75420111  0.89073178    -0.67000
O699        O  0.32014875  0.67793660  0.80040325    -0.79200
C700        C  0.22876074  0.60877161  0.84046705     0.84200
O701        O  0.24359876  0.63060162  0.80736511    -0.66400
Ni702      Ni  0.30722027  0.78346290  0.77151682     1.27400
Ni703      Ni  0.22302590  0.76234343  0.82753663     1.26100
H704        H  0.18650798  0.70213708  0.79320671     0.38700
C705        C  0.94394452  0.13160457  0.55130368     0.02800
C706        C  0.90121995  0.14282321  0.54751372    -0.13300
C707        C  0.89428411  0.18541905  0.54919495     0.00300
C708        C  0.93051227  0.21676352  0.05621278    -0.11900
C709        C  0.97407567  0.20755289  0.05923332     0.02800
C710        C  0.98018552  0.16384201  0.05660696    -0.12100
H711        H  0.87352121  0.11825152  0.54427034     0.08400
H712        H  0.92390546  0.24854560  0.06103060     0.05900
H713        H  0.51265673  0.15403603  0.05977067     0.05800
C714        C  0.89685852  0.18887992  0.29163133     0.02800
C715        C  0.93223152  0.22037481  0.29929056    -0.13300
C716        C  0.97510560  0.21260276  0.29714338     0.00300
C717        C  0.98254801  0.17279488  0.28718064    -0.11900
C718        C  0.94982052  0.13780884  0.28898889     0.02800
C719        C  0.90576199  0.14597921  0.28949631    -0.11300
H720        H  0.92609459  0.25113786  0.30803840     0.08400
H721        H  0.51548804  0.16816063  0.28220004     0.05900
H722        H  0.87948386  0.11984771  0.28898486     0.05800
C723        C  0.83674030  0.45821348  0.05145273     0.02800
C724        C  0.80287745  0.48350211  0.05438048    -0.13300
C725        C  0.75919576  0.46473908  0.05942000     0.00300
C726        C  0.75107438  0.41947243  0.06311699    -0.11900
C727        C  0.78290538  0.39395493  0.05702893     0.02800
C728        C  0.82579313  0.41339845  0.05085875    -0.11300
H729        H  0.81176547  0.01778863  0.05335435     0.08400
H730        H  0.71963344  0.40302645  0.07002912     0.05900
H731        H  0.85107573  0.39336916  0.04823176     0.05800
C732        C  0.82657763  0.44728930  0.28703820     0.02800
C733        C  0.80040221  0.47621038  0.29820797    -0.13300
C734        C  0.75776431  0.46186392  0.30893562     0.00300
C735        C  0.74348455  0.41713627  0.31005693    -0.11900
C736        C  0.76902376  0.38936341  0.29544985     0.02800
C737        C  0.80965297  0.40501364  0.28252031    -0.11300
H738        H  0.81422090  0.00934963  0.29860210     0.08400
H739        H  0.71295641  0.40339910  0.32205410     0.05900
H740        H  0.83019039  0.38275423  0.27357836     0.05800
O741        O  0.52677985  0.49832623  0.46259975    -0.81200
O742        O  0.52284555  0.44244618  0.15240629    -0.65900
O743        O  0.99036921  0.45069235  0.02926995    -1.12500
C744        C  0.94981079  0.08532434  0.05879346     1.05700
O745        O  0.95397019  0.45276896  0.15208364    -0.79100
O746        O  0.89566207  0.49235787  0.09506566    -0.66700
Ni747      Ni  0.52914014  0.44096980  0.99028718     1.34900
C748        C  0.88368786  0.47771504  0.05847566     0.84400
O749        O  0.52853766  0.38890462  0.08971543    -0.79700
O750        O  0.53151882  0.38302892  0.01780604    -0.89900
C751        C  0.98978995  0.44277909  0.17284364     0.84000
O752        O  0.58507657  0.45968630  0.02041815    -0.68100
O753        O  0.94926785  0.06824884  0.09852222    -0.87400
C754        C  0.59654481  0.47570919  0.05643177     0.84800
C755        C  0.53223750  0.36706679  0.05797984     1.06400
H756        H  0.51512292  0.02260888  0.09049413     0.38200
O757        O  0.98999683  0.00146345  0.08601151    -1.10100
O758        O  0.91015051  0.47908419  0.02949002    -0.66700
Ni759      Ni  0.97064858  0.00675336  0.02555742     1.26300
O760        O  0.56990061  0.47465782  0.08508826    -0.67000
O761        O  0.95372891  0.06440302  0.52632591    -0.79200
C762        C  0.99126610  0.50960732  0.44210825     0.84200
O763        O  0.95841192  0.51071690  0.46265216    -0.66400
Ni764      Ni  0.95148821  0.01032970  0.12537202     1.27400
Ni765      Ni  0.51020319  0.44588410  0.08974262     1.26100
H766        H  0.96506702  0.42970253  0.02503858     0.38700
O767        O  0.89331315  0.43797433  0.26376455    -0.81200
O768        O  0.58890517  0.47407770  0.29937809    -0.65900
O769        O  0.97030365  0.44323013  0.31759263    -1.12500
C770        C  0.96616921  0.09478407  0.29744337     1.05700
O771        O  0.58872849  0.01521197  0.35169236    -0.79100
O772        O  0.52489806  0.04287253  0.38299071    -0.66700
Ni773      Ni  0.93568278  0.39993231  0.28850081     1.34900
C774        C  0.99096303  0.52069098  0.39506076     0.84400
O775        O  0.54449283  0.39763749  0.31552933    -0.79700
O776        O  0.97752967  0.36076984  0.31063140    -0.89900
C777        C  0.60927884  0.49812252  0.32677918     0.84000
O778        O  0.95861035  0.40998073  0.23388782    -0.68100
O779        O  0.50744231  0.09543209  0.30846929    -0.87400
C780        C  0.99093039  0.43389569  0.22006149     0.84800
C781        C  0.51936246  0.36237302  0.31519063     1.06400
H782        H  0.51439529  0.02442229  0.26659965     0.38200
O783        O  0.51350118  0.01391397  0.29724068    -1.10100
O784        O  0.96068346  0.50383127  0.36885157    -0.66700
Ni785      Ni  0.95390071  0.50096343  0.30628971     1.26300
O786        O  0.52039234  0.45395342  0.24460512    -0.67000
O787        O  0.94030434  0.05997227  0.29538864    -0.79200
C788        C  0.87341785  0.45794443  0.28682406     0.84200
O789        O  0.89430518  0.48386839  0.31215594    -0.66400
Ni790      Ni  0.54817773  0.05516907  0.32891425     1.27400
Ni791      Ni  0.52977518  0.45633093  0.30693297     1.26100
H792        H  0.97029357  0.43384017  0.34856813     0.38700
C793        C  0.53907346  0.32107139  0.06780515     0.02800
C794        C  0.50496005  0.28799349  0.05876480    -0.13300
C795        C  0.51163026  0.24352323  0.06685279     0.00300
C796        C  0.55473920  0.23433927  0.08225724    -0.11900
C797        C  0.58955645  0.26758569  0.08816681     0.02800
C798        C  0.58126095  0.31053630  0.08169491    -0.11300
H799        H  0.97372136  0.29787830  0.04454577     0.08400
H800        H  0.56212310  0.20140721  0.08848739     0.05900
H801        H  0.60798715  0.33594326  0.08617174     0.05800
C802        C  0.58767963  0.26491947  0.33863688     0.02800
C803        C  0.55230363  0.23357478  0.32933427    -0.13300
C804        C  0.51225762  0.24511677  0.30831320     0.00300
C805        C  0.00665869  0.28813687  0.29944536    -0.11900
C806        C  0.53679686  0.31997886  0.31716419     0.02800
C807        C  0.57941355  0.30905956  0.33419575    -0.11300
H808        H  0.55664984  0.19980368  0.33632395     0.08400
H809        H  0.97701320  0.29681992  0.27972886     0.05900
H810        H  0.60515141  0.33386815  0.34366617     0.05800
C811        C  0.64315565  0.99593946  0.06419648     0.02800
C812        C  0.67758841  0.47296481  0.05779900    -0.13300
C813        C  0.72220417  0.49127390  0.06213941     0.00300
C814        C  0.73079811  0.03521087  0.06882483    -0.11900
C815        C  0.69703774  0.05957144  0.07271494     0.02800
C816        C  0.65344539  0.03932773  0.07221388    -0.11300
H817        H  0.66851968  0.44075376  0.04874787     0.08400
H818        H  0.76371980  0.05116340  0.07218835     0.05900
H819        H  0.62723756  0.05801122  0.07547747     0.05800
C820        C  0.65620249  0.00840751  0.32962438     0.02800
C821        C  0.68327408  0.48098611  0.31731756    -0.13300
C822        C  0.72879501  0.49279892  0.31948340     0.00300
C823        C  0.74522252  0.03502368  0.32972972    -0.11900
C824        C  0.71691418  0.06273361  0.33978843     0.02800
C825        C  0.67335387  0.04840215  0.34217503    -0.11300
H826        H  0.66824594  0.45095682  0.30577746     0.08400
H827        H  0.77933172  0.04720049  0.33004395     0.05900
H828        H  0.65173210  0.07046804  0.34953783     0.05800
O829        O  0.68597109  0.12052903  0.10457014    -0.81200
O830        O  0.74693639  0.32433506  0.08209117    -0.65900
O831        O  0.70205618  0.20630803  0.06708659    -1.12500
C832        C  0.85008479  0.19963110  0.04452740     1.05700
O833        O  0.78063105  0.33102210  0.02254003    -0.79100
O834        O  0.77661337  0.26494247  0.47513320    -0.66700
Ni835      Ni  0.66855395  0.17503542  0.11188598     1.34900
C836        C  0.75323179  0.23000817  0.46777984     0.84400
O837        O  0.66475001  0.27955039  0.07621146    -0.79700
O838        O  0.64305821  0.22427586  0.12288085    -0.89900
C839        C  0.77027193  0.34717162  0.05468769     0.84000
O840        O  0.71392731  0.18416564  0.15906299    -0.68100
O841        O  0.84839655  0.23834420  0.02801689    -0.87400
C842        C  0.73242454  0.22085879  0.16842328     0.84800
C843        C  0.63501119  0.25695454  0.09643472     1.06400
H844        H  0.79673554  0.24901132  0.09821774     0.38200
O845        O  0.77883515  0.24840976  0.07025545    -1.10100
O846        O  0.74654141  0.19901595  0.49798584    -0.66700
Ni847      Ni  0.75863400  0.18941865  0.06194659     1.26300
O848        O  0.73333972  0.25426401  0.13989695    -0.67000
O849        O  0.81724124  0.17530017  0.05849762    -0.79200
C850        C  0.70719117  0.10617171  0.07810532     0.84200
O851        O  0.73575140  0.12987064  0.05662626    -0.66400
Ni852      Ni  0.81187716  0.28225965  0.02672329     1.27400
Ni853      Ni  0.72294035  0.26517716  0.07546635     1.26100
H854        H  0.68394477  0.20565588  0.03925474     0.38700
O855        O  0.71836432  0.12685699  0.37173014    -0.81200
O856        O  0.74246769  0.32162213  0.33022221    -0.65900
O857        O  0.70614438  0.20333064  0.32006700    -1.12500
C858        C  0.85273645  0.20375695  0.28876793     1.05700
O859        O  0.76514279  0.32417673  0.26507635    -0.79100
O860        O  0.77695952  0.26050966  0.22041805    -0.66700
Ni861      Ni  0.67688584  0.16868872  0.36457457     1.34900
C862        C  0.75261587  0.22592925  0.21428474     0.84400
O863        O  0.66543418  0.27454325  0.33653847    -0.79700
O864        O  0.63355633  0.20885928  0.35907779    -0.89900
C865        C  0.75705247  0.34302666  0.29675006     0.84000
O866        O  0.70725985  0.19116872  0.41592276    -0.68100
O867        O  0.85050466  0.24390976  0.27646624    -0.87400
C868        C  0.73286057  0.22499508  0.42204157     0.84800
C869        C  0.63198496  0.24916481  0.34676116     1.06400
H870        H  0.79895788  0.25013318  0.34297185     0.38200
O871        O  0.77900273  0.24870847  0.31635630    -1.10100
O872        O  0.74449473  0.19674485  0.24575348    -0.66700
Ni873      Ni  0.76241090  0.18974160  0.30930237     1.26300
O874        O  0.74141658  0.25418742  0.39074540    -0.67000
O875        O  0.82014247  0.17791930  0.30041846    -0.79200
C876        C  0.72876052  0.10876915  0.34048808     0.84200
O877        O  0.74358964  0.13059257  0.30737765    -0.66400
Ni878      Ni  0.80723379  0.28345059  0.27153261     1.27400
Ni879      Ni  0.72303612  0.26233985  0.32755037     1.26100
H880        H  0.68651080  0.20213940  0.29321469     0.38700
C881        C  0.94394454  0.13160452  0.05130365     0.02800
C882        C  0.90121996  0.14282318  0.04751371    -0.13300
C883        C  0.89428413  0.18541904  0.04919492     0.00300
C884        C  0.93051224  0.21676354  0.55621281    -0.11900
C885        C  0.97407565  0.20755294  0.55923336     0.02800
C886        C  0.98018550  0.16384206  0.55660700    -0.12100
H887        H  0.87352121  0.11825149  0.04427035     0.08400
H888        H  0.92390542  0.24854562  0.56103061     0.05900
H889        H  0.51265671  0.15403608  0.55977074     0.05800
C890        C  0.89685853  0.18887995  0.79163136     0.02800
C891        C  0.93223151  0.22037485  0.79929062    -0.13300
C892        C  0.97510560  0.21260281  0.79714345     0.00300
C893        C  0.98254804  0.17279494  0.78718072    -0.11900
C894        C  0.94982057  0.13780890  0.78898897     0.02800
C895        C  0.90576202  0.14597924  0.78949636    -0.11300
H896        H  0.92609456  0.25113791  0.80803843     0.08400
H897        H  0.51548807  0.16816070  0.78220010     0.05900
H898        H  0.87948390  0.11984773  0.78898489     0.05800
C899        C  0.83674031  0.45821355  0.55145260     0.02800
C900        C  0.80287746  0.48350218  0.55438035    -0.13300
C901        C  0.75919579  0.46473912  0.55941997     0.00300
C902        C  0.75107443  0.41947248  0.56311703    -0.11900
C903        C  0.78290541  0.39395499  0.55702888     0.02800
C904        C  0.82579314  0.41339853  0.55085862    -0.11300
H905        H  0.81176545  0.01778861  0.55335437     0.08400
H906        H  0.71963352  0.40302648  0.57002927     0.05900
H907        H  0.85107572  0.39336924  0.54823158     0.05800
C908        C  0.82657759  0.44728932  0.78703808     0.02800
C909        C  0.80040217  0.47621040  0.79820789    -0.13300
C910        C  0.75776430  0.46186392  0.80893561     0.00300
C911        C  0.74348457  0.41713626  0.81005695    -0.11900
C912        C  0.76902374  0.38936342  0.79544978     0.02800
C913        C  0.80965292  0.40501367  0.78252017    -0.11300
H914        H  0.81422087  0.00934964  0.79860212     0.08400
H915        H  0.71295647  0.40339908  0.82205420     0.05900
H916        H  0.83019032  0.38275427  0.77357817     0.05800
O917        O  0.52677979  0.49832614  0.96259973    -0.81200
O918        O  0.52284558  0.44244622  0.65240627    -0.65900
O919        O  0.99036922  0.45069243  0.52926993    -1.12500
C920        C  0.94981076  0.08532439  0.55879348     1.05700
O921        O  0.95397018  0.45276901  0.65208364    -0.79100
O922        O  0.89566205  0.49235788  0.59506561    -0.66700
Ni923      Ni  0.52914016  0.44096986  0.49028717     1.34900
C924        C  0.88368787  0.47771509  0.55847558     0.84400
O925        O  0.52853770  0.38890469  0.58971540    -0.79700
O926        O  0.53151879  0.38302897  0.51780600    -0.89900
C927        C  0.98978995  0.44277914  0.67284362     0.84000
O928        O  0.58507660  0.45968629  0.52041816    -0.68100
O929        O  0.94926778  0.06824887  0.59852222    -0.87400
C930        C  0.59654485  0.47570919  0.55643178     0.84800
C931        C  0.53223750  0.36706685  0.55797981     1.06400
H932        H  0.51512289  0.02260896  0.59049415     0.38200
O933        O  0.98999680  0.00146353  0.58601150    -1.10100
O934        O  0.91015053  0.47908428  0.52948995    -0.66700
Ni935      Ni  0.97064855  0.00675344  0.52555742     1.26300
O936        O  0.56990064  0.47465786  0.58508825    -0.67000
O937        O  0.95372894  0.06440296  0.02632591    -0.79200
C938        C  0.99126603  0.50960723  0.94210825     0.84200
O939        O  0.95841185  0.51071679  0.96265217    -0.66400
Ni940      Ni  0.95148818  0.01032973  0.62537202     1.27400
Ni941      Ni  0.51020322  0.44588416  0.58974261     1.26100
H942        H  0.96506702  0.42970261  0.52503854     0.38700
O943        O  0.89331314  0.43797433  0.76376448    -0.81200
O944        O  0.58890516  0.47407772  0.79937810    -0.65900
O945        O  0.97030364  0.44323014  0.81759258    -1.12500
C946        C  0.96616928  0.09478413  0.79744343     1.05700
O947        O  0.58872850  0.01521192  0.85169244    -0.79100
O948        O  0.52489810  0.04287252  0.88299077    -0.66700
Ni949      Ni  0.93568278  0.39993232  0.78850075     1.34900
C950        C  0.99096297  0.52069093  0.89506076     0.84400
O951        O  0.54449283  0.39763751  0.81552934    -0.79700
O952        O  0.97752967  0.36076988  0.81063138    -0.89900
C953        C  0.60927883  0.49812250  0.82677922     0.84000
O954        O  0.95861037  0.40998073  0.73388778    -0.68100
O955        O  0.50744240  0.09543214  0.80846941    -0.87400
C956        C  0.99093041  0.43389572  0.72006147     0.84800
C957        C  0.51936246  0.36237305  0.81519063     1.06400
H958        H  0.51439542  0.02442236  0.76659966     0.38200
O959        O  0.51350127  0.01391401  0.79724068    -1.10100
O960        O  0.96068341  0.50383123  0.86885155    -0.66700
Ni961      Ni  0.95390069  0.50096343  0.80628969     1.26300
O962        O  0.52039237  0.45395344  0.74460510    -0.67000
O963        O  0.94030440  0.05997234  0.79538865    -0.79200
C964        C  0.87341782  0.45794443  0.78682398     0.84200
O965        O  0.89430515  0.48386837  0.81215589    -0.66400
Ni966      Ni  0.54817779  0.05516908  0.82891434     1.27400
Ni967      Ni  0.52977517  0.45633094  0.80693296     1.26100
H968        H  0.97029355  0.43384017  0.84856808     0.38700
C969        C  0.53907345  0.32107146  0.56780514     0.02800
C970        C  0.50496003  0.28799355  0.55876483    -0.13300
C971        C  0.51163024  0.24352329  0.56685283     0.00300
C972        C  0.55473918  0.23433933  0.58225728    -0.11900
C973        C  0.58955643  0.26758575  0.58816681     0.02800
C974        C  0.58126093  0.31053636  0.58169490    -0.11300
H975        H  0.97372133  0.29787836  0.54454583     0.08400
H976        H  0.56212308  0.20140726  0.58848744     0.05900
H977        H  0.60798713  0.33594332  0.58617171     0.05800
C978        C  0.58767962  0.26491949  0.83863690     0.02800
C979        C  0.55230360  0.23357480  0.82933435    -0.13300
C980        C  0.51225760  0.24511680  0.80831328     0.00300
C981        C  0.00665868  0.28813691  0.79944540    -0.11900
C982        C  0.53679686  0.31997889  0.81716422     0.02800
C983        C  0.57941355  0.30905960  0.83419576    -0.11300
H984        H  0.55664981  0.19980369  0.83632406     0.08400
H985        H  0.97701320  0.29681996  0.77972889     0.05900
H986        H  0.60515142  0.33386819  0.84366616     0.05800
C987        C  0.64315563  0.99593953  0.56419648     0.02800
C988        C  0.67758844  0.47296481  0.55779896    -0.13300
C989        C  0.72220420  0.49127392  0.56213941     0.00300
C990        C  0.73079811  0.03521089  0.56882484    -0.11900
C991        C  0.69703774  0.05957148  0.57271494     0.02800
C992        C  0.65344539  0.03932781  0.57221386    -0.11300
H993        H  0.66851973  0.44075377  0.54874779     0.08400
H994        H  0.76371980  0.05116341  0.57218835     0.05900
H995        H  0.62723756  0.05801131  0.57547742     0.05800
C996        C  0.65620250  0.00840751  0.82962443     0.02800
C997        C  0.68327407  0.48098607  0.81731762    -0.13300
C998        C  0.72879500  0.49279889  0.81948343     0.00300
C999        C  0.74522251  0.03502369  0.82972974    -0.11900
C1000       C  0.71691418  0.06273363  0.83978842     0.02800
C1001       C  0.67335386  0.04840217  0.84217507    -0.11300
H1002       H  0.66824594  0.45095676  0.80577753     0.08400
H1003       H  0.77933172  0.04720050  0.83004398     0.05900
H1004       H  0.65173210  0.07046806  0.84953787     0.05800
O1005       O  0.68597108  0.12052908  0.60457012    -0.81200
O1006       O  0.74693634  0.32433514  0.58209104    -0.65900
O1007       O  0.70205618  0.20630808  0.56708656    -1.12500
C1008       C  0.85008477  0.19963109  0.54452742     1.05700
O1009       O  0.78063121  0.33102218  0.52254002    -0.79100
O1010       O  0.77661340  0.26494244  0.97513316    -0.66700
Ni1011     Ni  0.66855394  0.17503549  0.61188594     1.34900
C1012       C  0.75323178  0.23000816  0.96777978     0.84400
O1013       O  0.66474997  0.27955043  0.57621136    -0.79700
O1014       O  0.64305820  0.22427592  0.62288081    -0.89900
C1015       C  0.77027197  0.34717169  0.55468763     0.84000
O1016       O  0.71392733  0.18416573  0.65906291    -0.68100
O1017       O  0.84839652  0.23834416  0.52801684    -0.87400
C1018       C  0.73242453  0.22085889  0.66842320     0.84800
C1019       C  0.63501117  0.25695460  0.59643468     1.06400
H1020       H  0.79673553  0.24901140  0.59821774     0.38200
O1021       O  0.77883515  0.24840981  0.57025544    -1.10100
O1022       O  0.74654137  0.19901594  0.99798579    -0.66700
Ni1023     Ni  0.75863401  0.18941869  0.56194662     1.26300
O1024       O  0.73333967  0.25426412  0.63989689    -0.67000
O1025       O  0.81724124  0.17530019  0.55849771    -0.79200
C1026       C  0.70719117  0.10617175  0.57810532     0.84200
O1027       O  0.73575142  0.12987068  0.55662628    -0.66400
Ni1028     Ni  0.81187720  0.28225965  0.52672329     1.27400
Ni1029     Ni  0.72294032  0.26517722  0.57546628     1.26100
H1030       H  0.68394477  0.20565591  0.53925471     0.38700
O1031       O  0.71836437  0.12685706  0.87173006    -0.81200
O1032       O  0.74246765  0.32162213  0.83022212    -0.65900
O1033       O  0.70614435  0.20333065  0.82006688    -1.12500
C1034       C  0.85273644  0.20375695  0.78876791     1.05700
O1035       O  0.76514281  0.32417676  0.76507628    -0.79100
O1036       O  0.77695953  0.26050971  0.72041798    -0.66700
Ni1037     Ni  0.67688585  0.16868874  0.86457448     1.34900
C1038       C  0.75261587  0.22592932  0.71428466     0.84400
O1039       O  0.66543416  0.27454326  0.83653839    -0.79700
O1040       O  0.63355632  0.20885929  0.85907770    -0.89900
C1041       C  0.75705245  0.34302667  0.79674998     0.84000
O1042       O  0.70725983  0.19116874  0.91592269    -0.68100
O1043       O  0.85050465  0.24390976  0.77646622    -0.87400
C1044       C  0.73286056  0.22499509  0.92204149     0.84800
C1045       C  0.63198494  0.24916482  0.84676110     1.06400
H1046       H  0.79895783  0.25013318  0.84297176     0.38200
O1047       O  0.77900270  0.24870848  0.81635621    -1.10100
O1048       O  0.74449473  0.19674489  0.74575337    -0.66700
Ni1049     Ni  0.76241086  0.18974160  0.80930226     1.26300
O1050       O  0.74141657  0.25418742  0.89074532    -0.67000
O1051       O  0.82014245  0.17791930  0.80041840    -0.79200
C1052       C  0.72876052  0.10876918  0.84048800     0.84200
O1053       O  0.74358959  0.13059258  0.80737754    -0.66400
Ni1054     Ni  0.80723380  0.28345061  0.77153256     1.27400
Ni1055     Ni  0.72303609  0.26233986  0.82755027     1.26100
H1056       H  0.68651076  0.20213941  0.79321458     0.38700
C1057       C  0.94393233  0.63161579  0.55122483     0.02800
C1058       C  0.90120663  0.64283413  0.54743913    -0.13300
C1059       C  0.89427053  0.68542745  0.54914220     0.00300
C1060       C  0.93049906  0.71676817  0.05617261    -0.11900
C1061       C  0.97406192  0.70755789  0.05918709     0.02800
C1062       C  0.98017203  0.66385159  0.05654062    -0.12100
H1063       H  0.87350796  0.61826339  0.54418842     0.08400
H1064       H  0.92389342  0.74854602  0.06100772     0.05900
H1065       H  0.51264345  0.65404644  0.05970203     0.05800
C1066       C  0.89686307  0.68890383  0.29158528     0.02800
C1067       C  0.93223900  0.72040472  0.29921116    -0.13300
C1068       C  0.97511147  0.71262863  0.29705677     0.00300
C1069       C  0.98254894  0.67281620  0.28710168    -0.11900
C1070       C  0.94982391  0.63782977  0.28893395     0.02800
C1071       C  0.90576737  0.64600048  0.28946073    -0.11300
H1072       H  0.92610674  0.75117242  0.30795049     0.08400
H1073       H  0.51548627  0.66817857  0.28211461     0.05900
H1074       H  0.87949136  0.61986660  0.28897309     0.05800
C1075       C  0.83673934  0.95820171  0.05151691     0.02800
C1076       C  0.80287554  0.98349366  0.05443127    -0.13300
C1077       C  0.75918922  0.96473419  0.05945563     0.00300
C1078       C  0.75106453  0.91946784  0.06314809    -0.11900
C1079       C  0.78289813  0.89394848  0.05707281     0.02800
C1080       C  0.82579137  0.91338716  0.05092460    -0.11300
H1081       H  0.81176389  0.51779786  0.05330169     0.08400
H1082       H  0.71961944  0.90302222  0.07004513     0.05900
H1083       H  0.85107499  0.89335514  0.04830904     0.05800
C1084       C  0.82657051  0.94728440  0.28705548     0.02800
C1085       C  0.80040293  0.97620215  0.29824639    -0.13300
C1086       C  0.75775966  0.96185923  0.30896220     0.00300
C1087       C  0.74347285  0.91713455  0.31006207    -0.11900
C1088       C  0.76900332  0.88936734  0.29543395     0.02800
C1089       C  0.80963167  0.90501853  0.28250234    -0.11300
H1090       H  0.81420701  0.50936464  0.29853522     0.08400
H1091       H  0.71294698  0.90339341  0.32206107     0.05900
H1092       H  0.83016133  0.88276175  0.27354226     0.05800
O1093       O  0.52676804  0.99833308  0.46265907    -0.81200
O1094       O  0.52285476  0.94242496  0.15245892    -0.65900
O1095       O  0.99036061  0.95068577  0.02932134    -1.12500
C1096       C  0.94980422  0.58533622  0.05871926     1.05700
O1097       O  0.95398177  0.95274824  0.15214618    -0.79100
O1098       O  0.89566464  0.99232727  0.09514061    -0.66700
Ni1099     Ni  0.52912871  0.94097312  0.99033092     1.34900
C1100       C  0.88368685  0.97770084  0.05854330     0.84400
O1101       O  0.52853579  0.88889226  0.08975133    -0.79700
O1102       O  0.53150743  0.88302973  0.01783674    -0.89900
C1103       C  0.98980356  0.94276106  0.17290233     0.84000
O1104       O  0.58506747  0.95968422  0.02045917    -0.68100
O1105       O  0.94927369  0.56826900  0.09845165    -0.87400
C1106       C  0.59653884  0.97570436  0.05647359     0.84800
C1107       C  0.53222936  0.86706092  0.05800840     1.06400
H1108       H  0.51512274  0.52262408  0.09043110     0.38200
O1109       O  0.98999683  0.50147805  0.08595036    -1.10100
O1110       O  0.91014509  0.97908575  0.02955079    -0.66700
Ni1111     Ni  0.97065158  0.50675917  0.02549657     1.26300
O1112       O  0.56989832  0.97464743  0.08513449    -0.67000
O1113       O  0.95371969  0.56440806  0.52625530    -0.79200
C1114       C  0.99125349  0.00960794  0.44216595     0.84200
O1115       O  0.95840125  0.01071883  0.46271181    -0.66400
Ni1116     Ni  0.95148535  0.51035097  0.12530478     1.27400
Ni1117     Ni  0.51020266  0.94587027  0.08979315     1.26100
H1118       H  0.96505724  0.92969746  0.02508901     0.38700
O1119       O  0.89331616  0.93795300  0.26381066    -0.81200
O1120       O  0.58890758  0.97406873  0.29944868    -0.65900
O1121       O  0.97030311  0.94321285  0.31765001    -1.12500
C1122       C  0.96617561  0.59480515  0.29739168     1.05700
O1123       O  0.58872672  0.51521705  0.35162461    -0.79100
O1124       O  0.52491000  0.54288306  0.38293446    -0.66700
Ni1125     Ni  0.93568753  0.89991440  0.28855433     1.34900
C1126       C  0.99095022  0.02068212  0.39511699     0.84400
O1127       O  0.54449484  0.89762786  0.31558454    -0.79700
O1128       O  0.97753361  0.86075385  0.31069014    -0.89900
C1129       C  0.60928116  0.99811311  0.32685070     0.84000
O1130       O  0.95862597  0.90996200  0.23394633    -0.68100
O1131       O  0.50744966  0.59545278  0.30841579    -0.87400
C1132       C  0.99094553  0.93387923  0.22012127     0.84800
C1133       C  0.51936623  0.86236319  0.31523620     1.06400
H1134       H  0.51439583  0.52443819  0.26653694     0.38200
O1135       O  0.51350304  0.51392964  0.29717808    -1.10100
O1136       O  0.96067352  0.00381589  0.36890837    -0.66700
Ni1137     Ni  0.95389708  0.00094404  0.30634580     1.26300
O1138       O  0.52040145  0.95394339  0.24466592    -0.67000
O1139       O  0.94031118  0.55999312  0.29533661    -0.79200
C1140       C  0.87341595  0.95792616  0.28686327     0.84200
O1141       O  0.89429998  0.98384449  0.31220355    -0.66400
Ni1142     Ni  0.54818259  0.55518229  0.32885386     1.27400
Ni1143     Ni  0.52977611  0.95631823  0.30699539     1.26100
H1144       H  0.97029030  0.93382278  0.34862524     0.38700
C1145       C  0.53906114  0.82106482  0.06782065     0.02800
C1146       C  0.50494910  0.78799295  0.05875578    -0.13300
C1147       C  0.51161663  0.74352214  0.06682708     0.00300
C1148       C  0.55472266  0.73433187  0.08223570    -0.11900
C1149       C  0.58953985  0.76757425  0.08816667     0.02800
C1150       C  0.58124586  0.81052500  0.08171582    -0.11300
H1151       H  0.97371351  0.79788248  0.04453194     0.08400
H1152       H  0.56210487  0.70139881  0.08845222     0.05900
H1153       H  0.60797192  0.83592899  0.08620982     0.05800
C1154       C  0.58767577  0.76491334  0.33862559     0.02800
C1155       C  0.55230552  0.73357672  0.32927721    -0.13300
C1156       C  0.51226891  0.74513276  0.30824167     0.00300
C1157       C  0.00667769  0.78815657  0.29939936    -0.11900
C1158       C  0.53680330  0.81997857  0.31717022     0.02800
C1159       C  0.57941099  0.80905051  0.33421718    -0.11300
H1160       H  0.55665105  0.69980413  0.33624622     0.08400
H1161       H  0.97704248  0.79685684  0.27967458     0.05900
H1162       H  0.60514235  0.83384987  0.34372640     0.05800
C1163       C  0.64316189  0.49594239  0.06415949     0.02800
C1164       C  0.67758085  0.97296148  0.05783400    -0.13300
C1165       C  0.72219671  0.99127148  0.06216636     0.00300
C1166       C  0.73080607  0.53521069  0.06880902    -0.11900
C1167       C  0.69704416  0.55957183  0.07269275     0.02800
C1168       C  0.65345108  0.53932928  0.07218227    -0.11300
H1169       H  0.66850956  0.94074919  0.04878800     0.08400
H1170       H  0.76372883  0.55116030  0.07218395     0.05900
H1171       H  0.62724257  0.55801302  0.07544298     0.05800
C1172       C  0.65619881  0.50841926  0.32955301     0.02800
C1173       C  0.68327352  0.98097590  0.31737830    -0.13300
C1174       C  0.72879362  0.99279204  0.31952398     0.00300
C1175       C  0.74522415  0.53502659  0.32970229    -0.11900
C1176       C  0.71691145  0.56273843  0.33974992     0.02800
C1177       C  0.67334654  0.54841264  0.34210905    -0.11300
H1178       H  0.66824053  0.95094713  0.30584142     0.08400
H1179       H  0.77933754  0.54719540  0.33003841     0.05900
H1180       H  0.65172146  0.57047983  0.34946277     0.05800
O1181       O  0.68598544  0.62052311  0.10456309    -0.81200
O1182       O  0.74691793  0.82432764  0.08210481    -0.65900
O1183       O  0.70204684  0.70630589  0.06707639    -1.12500
C1184       C  0.85007182  0.69964078  0.04449126     1.05700
O1185       O  0.78061645  0.83103228  0.02255532    -0.79100
O1186       O  0.77659289  0.76496347  0.47512411    -0.66700
Ni1187     Ni  0.66855004  0.67502301  0.11187547     1.34900
C1188       C  0.75322058  0.73002475  0.46776647     0.84400
O1189       O  0.66473411  0.77954134  0.07621486    -0.79700
O1190       O  0.64303529  0.72425322  0.12286799    -0.89900
C1191       C  0.77025963  0.84716992  0.05471172     0.84000
O1192       O  0.71391618  0.68416160  0.15905850    -0.68100
O1193       O  0.84838098  0.73835721  0.02799156    -0.87400
C1194       C  0.73241194  0.72085558  0.16841749     0.84800
C1195       C  0.63499350  0.75694041  0.09643205     1.06400
H1196       H  0.79672456  0.74901014  0.09820954     0.38200
O1197       O  0.77882345  0.74841196  0.07024745    -1.10100
O1198       O  0.74653359  0.69902952  0.49796958    -0.66700
Ni1199     Ni  0.75862565  0.68942243  0.06192813     1.26300
O1200       O  0.73332617  0.75425876  0.13989099    -0.67000
O1201       O  0.81723239  0.67530813  0.05846772    -0.79200
C1202       C  0.70719554  0.60617155  0.07808574     0.84200
O1203       O  0.73574472  0.62987602  0.05659740    -0.66400
Ni1204     Ni  0.81186152  0.78227095  0.02671727     1.27400
Ni1205     Ni  0.72292593  0.76517379  0.07546410     1.26100
H1206       H  0.68393385  0.70565638  0.03924522     0.38700
O1207       O  0.71835716  0.62685068  0.37171237    -0.81200
O1208       O  0.74244846  0.82162693  0.33020480    -0.65900
O1209       O  0.70614188  0.70333155  0.32005856    -1.12500
C1210       C  0.85273868  0.70377758  0.28874548     1.05700
O1211       O  0.76512088  0.82418082  0.26505891    -0.79100
O1212       O  0.77694575  0.76051455  0.22040608    -0.66700
Ni1213     Ni  0.67688416  0.66868811  0.36456682     1.34900
C1214       C  0.75260559  0.72593119  0.21427652     0.84400
O1215       O  0.66542383  0.77454044  0.33652271    -0.79700
O1216       O  0.63355448  0.70885839  0.35908079    -0.89900
C1217       C  0.75703082  0.84303135  0.29673186     0.84000
O1218       O  0.70726913  0.69117016  0.41590934    -0.68100
O1219       O  0.85049972  0.74393025  0.27644867    -0.87400
C1220       C  0.73285553  0.72500610  0.42202782     0.84800
C1221       C  0.63197959  0.74916163  0.34675623     1.06400
H1222       H  0.79895102  0.75014795  0.34296019     0.38200
O1223       O  0.77899610  0.74871902  0.31634487    -1.10100
O1224       O  0.74449031  0.69674812  0.24574691    -0.66700
Ni1225     Ni  0.76241280  0.68975043  0.30929303     1.26300
O1226       O  0.74140280  0.75420110  0.39073178    -0.67000
O1227       O  0.82014881  0.67793663  0.30040335    -0.79200
C1228       C  0.72876074  0.60877164  0.34046710     0.84200
O1229       O  0.74359881  0.63060164  0.30736519    -0.66400
Ni1230     Ni  0.80722028  0.78346291  0.27151676     1.27400
Ni1231     Ni  0.72302593  0.76234345  0.32753663     1.26100
H1232       H  0.68650802  0.70213710  0.29320671     0.38700
C1233       C  0.94393237  0.63161574  0.05122483     0.02800
C1234       C  0.90120667  0.64283408  0.04743913    -0.13300
C1235       C  0.89427056  0.68542740  0.04914217     0.00300
C1236       C  0.93049903  0.71676822  0.55617266    -0.11900
C1237       C  0.97406189  0.70755795  0.55918711     0.02800
C1238       C  0.98017200  0.66385165  0.55654062    -0.12100
H1239       H  0.87350800  0.61826334  0.04418842     0.08400
H1240       H  0.92389340  0.74854608  0.56100780     0.05900
H1241       H  0.51264345  0.65404649  0.55970203     0.05800
C1242       C  0.89686304  0.68890381  0.79158530     0.02800
C1243       C  0.93223897  0.72040470  0.79921120    -0.13300
C1244       C  0.97511145  0.71262861  0.79705682     0.00300
C1245       C  0.98254892  0.67281618  0.78710172    -0.11900
C1246       C  0.94982389  0.63782975  0.78893400     0.02800
C1247       C  0.90576735  0.64600046  0.78946076    -0.11300
H1248       H  0.92610672  0.75117240  0.80795052     0.08400
H1249       H  0.51548624  0.66817857  0.78211462     0.05900
H1250       H  0.87949134  0.61986658  0.78897312     0.05800
C1251       C  0.83673931  0.95820170  0.55151691     0.02800
C1252       C  0.80287551  0.98349365  0.55443129    -0.13300
C1253       C  0.75918919  0.96473419  0.55945564     0.00300
C1254       C  0.75106448  0.91946784  0.56314805    -0.11900
C1255       C  0.78289808  0.89394848  0.55707275     0.02800
C1256       C  0.82579133  0.91338715  0.55092458    -0.11300
H1257       H  0.81176387  0.51779794  0.55330150     0.08400
H1258       H  0.71961939  0.90302222  0.57004509     0.05900
H1259       H  0.85107495  0.89335513  0.54830901     0.05800
C1260       C  0.82657050  0.94728442  0.78705554     0.02800
C1261       C  0.80040290  0.97620215  0.79824643    -0.13300
C1262       C  0.75775964  0.96185923  0.80896224     0.00300
C1263       C  0.74347283  0.91713455  0.81006211    -0.11900
C1264       C  0.76900331  0.88936733  0.79543400     0.02800
C1265       C  0.80963166  0.90501854  0.78250241    -0.11300
H1266       H  0.81420696  0.50936466  0.79853512     0.08400
H1267       H  0.71294695  0.90339341  0.82206109     0.05900
H1268       H  0.83016133  0.88276177  0.77354233     0.05800
O1269       O  0.52676804  0.99833301  0.96265909    -0.81200
O1270       O  0.52285481  0.94242506  0.65245891    -0.65900
O1271       O  0.99036058  0.95068585  0.52932135    -1.12500
C1272       C  0.94980419  0.58533628  0.55871925     1.05700
O1273       O  0.95398179  0.95274828  0.65214616    -0.79100
O1274       O  0.89566461  0.99232725  0.59514064    -0.66700
Ni1275     Ni  0.52912870  0.94097319  0.49033092     1.34900
C1276       C  0.88368682  0.97770084  0.55854331     0.84400
O1277       O  0.52853583  0.88889235  0.58975133    -0.79700
O1278       O  0.53150739  0.88302979  0.51783674    -0.89900
C1279       C  0.98980359  0.94276115  0.67290231     0.84000
O1280       O  0.58506746  0.95968427  0.52045918    -0.68100
O1281       O  0.94927362  0.56826904  0.59845164    -0.87400
C1282       C  0.59653882  0.97570444  0.55647359     0.84800
C1283       C  0.53222936  0.86706099  0.55800841     1.06400
H1284       H  0.51512276  0.52262414  0.59043112     0.38200
O1285       O  0.98999682  0.50147810  0.58595036    -1.10100
O1286       O  0.91014506  0.97908581  0.52955077    -0.66700
Ni1287     Ni  0.97065160  0.50675926  0.52549656     1.26300
O1288       O  0.56989830  0.97464756  0.58513447    -0.67000
O1289       O  0.95371968  0.56440798  0.02625530    -0.79200
C1290       C  0.99125349  0.00960785  0.94216595     0.84200
O1291       O  0.95840125  0.01071873  0.96271182    -0.66400
Ni1292     Ni  0.95148532  0.51035101  0.62530477     1.27400
Ni1293     Ni  0.51020267  0.94587035  0.58979315     1.26100
H1294       H  0.96505721  0.92969755  0.52508902     0.38700
O1295       O  0.89331612  0.93795304  0.76381066    -0.81200
O1296       O  0.58890762  0.97406871  0.79944873    -0.65900
O1297       O  0.97030309  0.94321289  0.81764996    -1.12500
C1298       C  0.96617559  0.59480514  0.79739173     1.05700
O1299       O  0.58872670  0.51521703  0.85162465    -0.79100
O1300       O  0.52490995  0.54288304  0.88293447    -0.66700
Ni1301     Ni  0.93568751  0.89991445  0.78855426     1.34900
C1302       C  0.99095022  0.02068208  0.89511700     0.84400
O1303       O  0.54449484  0.89762786  0.81558454    -0.79700
O1304       O  0.97753360  0.86075389  0.81068997    -0.89900
C1305       C  0.60928118  0.99811309  0.82685077     0.84000
O1306       O  0.95862593  0.90996216  0.73394627    -0.68100
O1307       O  0.50744965  0.59545278  0.80841582    -0.87400
C1308       C  0.99094555  0.93387932  0.72012124     0.84800
C1309       C  0.51936622  0.86236319  0.81523614     1.06400
H1310       H  0.51439583  0.52443823  0.76653693     0.38200
O1311       O  0.51350303  0.51392966  0.79717807    -1.10100
O1312       O  0.96067352  0.00381590  0.86890835    -0.66700
Ni1313     Ni  0.95389710  0.00094411  0.80634577     1.26300
O1314       O  0.52040154  0.95394340  0.74466591    -0.67000
O1315       O  0.94031116  0.55999311  0.79533664    -0.79200
C1316       C  0.87341593  0.95792621  0.78686327     0.84200
O1317       O  0.89429997  0.98384459  0.81220349    -0.66400
Ni1318     Ni  0.54818257  0.55518229  0.82885389     1.27400
Ni1319     Ni  0.52977614  0.95631824  0.80699538     1.26100
H1320       H  0.97029026  0.93382281  0.84862518     0.38700
C1321       C  0.53906112  0.82106488  0.56782066     0.02800
C1322       C  0.50494909  0.78799301  0.55875578    -0.13300
C1323       C  0.51161662  0.74352220  0.56682710     0.00300
C1324       C  0.55472265  0.73433192  0.58223572    -0.11900
C1325       C  0.58953983  0.76757429  0.58816667     0.02800
C1326       C  0.58124585  0.81052504  0.58171582    -0.11300
H1327       H  0.97371347  0.79788254  0.54453197     0.08400
H1328       H  0.56210485  0.70139886  0.58845225     0.05900
H1329       H  0.60797192  0.83592903  0.58620982     0.05800
C1330       C  0.58767575  0.76491334  0.83862563     0.02800
C1331       C  0.55230551  0.73357671  0.82927726    -0.13300
C1332       C  0.51226889  0.74513274  0.80824174     0.00300
C1333       C  0.00667767  0.78815655  0.79939937    -0.11900
C1334       C  0.53680327  0.81997856  0.81717021     0.02800
C1335       C  0.57941096  0.80905051  0.83421719    -0.11300
H1336       H  0.55665104  0.69980412  0.83624628     0.08400
H1337       H  0.97704247  0.79685681  0.77967458     0.05900
H1338       H  0.60514230  0.83384986  0.84372640     0.05800
C1339       C  0.64316192  0.49594238  0.56415950     0.02800
C1340       C  0.67758083  0.97296151  0.55783405    -0.13300
C1341       C  0.72219669  0.99127150  0.56216639     0.00300
C1342       C  0.73080610  0.53521070  0.56880906    -0.11900
C1343       C  0.69704417  0.55957183  0.57269280     0.02800
C1344       C  0.65345110  0.53932926  0.57218232    -0.11300
H1345       H  0.66850952  0.94074921  0.54878809     0.08400
H1346       H  0.76372886  0.55116031  0.57218403     0.05900
H1347       H  0.62724258  0.55801299  0.57544305     0.05800
C1348       C  0.65619880  0.50841922  0.82955306     0.02800
C1349       C  0.68327351  0.98097591  0.81737833    -0.13300
C1350       C  0.72879360  0.99279204  0.81952402     0.00300
C1351       C  0.74522414  0.53502656  0.82970231    -0.11900
C1352       C  0.71691143  0.56273840  0.83974991     0.02800
C1353       C  0.67334653  0.54841262  0.84210906    -0.11300
H1354       H  0.66824052  0.95094714  0.80584144     0.08400
H1355       H  0.77933753  0.54719537  0.83003843     0.05900
H1356       H  0.65172144  0.57047981  0.84946275     0.05800
O1357       O  0.68598543  0.62052311  0.60456313    -0.81200
O1358       O  0.74691789  0.82432765  0.58210478    -0.65900
O1359       O  0.70204682  0.70630590  0.56707641    -1.12500
C1360       C  0.85007181  0.69964084  0.54449131     1.05700
O1361       O  0.78061636  0.83103228  0.52255527    -0.79100
O1362       O  0.77659285  0.76496348  0.97512411    -0.66700
Ni1363     Ni  0.66855002  0.67502302  0.61187548     1.34900
C1364       C  0.75322056  0.73002474  0.96776645     0.84400
O1365       O  0.66473408  0.77954135  0.57621483    -0.79700
O1366       O  0.64303526  0.72425324  0.62286798    -0.89900
C1367       C  0.77025956  0.84716993  0.55471167     0.84000
O1368       O  0.71391616  0.68416164  0.65905850    -0.68100
O1369       O  0.84838099  0.73835727  0.52799164    -0.87400
C1370       C  0.73241191  0.72085563  0.66841749     0.84800
C1371       C  0.63499347  0.75694043  0.59643203     1.06400
H1372       H  0.79672452  0.74901016  0.59820955     0.38200
O1373       O  0.77882342  0.74841199  0.57024746    -1.10100
O1374       O  0.74653361  0.69902949  0.99796956    -0.66700
Ni1375     Ni  0.75862563  0.68942245  0.56192816     1.26300
O1376       O  0.73332613  0.75425881  0.63989099    -0.67000
O1377       O  0.81723238  0.67530816  0.55846775    -0.79200
C1378       C  0.70719554  0.60617155  0.57808579     0.84200
O1379       O  0.73574471  0.62987602  0.55659745    -0.66400
Ni1380     Ni  0.81186150  0.78227099  0.52671729     1.27400
Ni1381     Ni  0.72292590  0.76517381  0.57546410     1.26100
H1382       H  0.68393383  0.70565637  0.53924524     0.38700
O1383       O  0.71835714  0.62685067  0.87171233    -0.81200
O1384       O  0.74244845  0.82162691  0.83020483    -0.65900
O1385       O  0.70614184  0.70333154  0.82005854    -1.12500
C1386       C  0.85273864  0.70377755  0.78874548     1.05700
O1387       O  0.76512089  0.82418082  0.76505894    -0.79100
O1388       O  0.77694575  0.76051456  0.72040610    -0.66700
Ni1389     Ni  0.67688414  0.66868810  0.86456681     1.34900
C1390       C  0.75260556  0.72593122  0.71427652     0.84400
O1391       O  0.66542381  0.77454044  0.83652271    -0.79700
O1392       O  0.63355446  0.70885839  0.85908081    -0.89900
C1393       C  0.75703082  0.84303134  0.79673190     0.84000
O1394       O  0.70726912  0.69117013  0.91590933    -0.68100
O1395       O  0.85049970  0.74393024  0.77644872    -0.87400
C1396       C  0.73285551  0.72500608  0.92202781     0.84800
C1397       C  0.63197957  0.74916163  0.84675626     1.06400
H1398       H  0.79895097  0.75014788  0.84296020     0.38200
O1399       O  0.77899606  0.74871898  0.81634488    -1.10100
O1400       O  0.74449025  0.69674814  0.74574688    -0.66700
Ni1401     Ni  0.76241274  0.68975040  0.80929299     1.26300
O1402       O  0.74140277  0.75420108  0.89073178    -0.67000
O1403       O  0.82014875  0.67793659  0.80040327    -0.79200
C1404       C  0.72876070  0.60877162  0.84046706     0.84200
O1405       O  0.74359874  0.63060161  0.80736512    -0.66400
Ni1406     Ni  0.80722027  0.78346289  0.77151680     1.27400
Ni1407     Ni  0.72302590  0.76234343  0.82753663     1.26100
H1408       H  0.68650797  0.70213710  0.79320669     0.38700
loop_ 
_geom_bond_atom_site_label_1 
_geom_bond_atom_site_label_2 
_geom_bond_distance 
_geom_bond_site_symmetry_2 
_ccdc_geom_bond_type 
C1            C2   1.402       .  A
C1          C182   1.423       .  A
C1          C216   1.479       .  S
C2            C3   1.394       .  A
C2            H7   1.084       .  S
C3          C180   1.412       .  A
C3          C304   1.480       .  S
C4            C5   1.407       .  A
C4          C179   1.412       .  A
C4            H8   1.078       .  S
C5            C6   1.427       .  A
C5          C795   1.535       .  S
C6          C177   1.423       .  A
C6          H713   1.080       .  S
H9          C710   1.080   1_455  S
C10          C11   1.400       .  A
C10          C15   1.424       .  A
C10         C154   1.491       .  S
C11          C12   1.394       .  A
C11          H16   1.082       .  S
C12          C13   1.380       .  A
C12         C804   1.477       .  S
C13          C14   1.401       .  A
C13         H721   1.083       .  S
C14          C15   1.425       .  A
C14          C66   1.489       .  S
C15          H18   1.083       .  S
H17         C717   1.083   1_455  S
C19          C20   1.414       .  A
C19          C24   1.411       .  A
C19          C44   1.507       .  S
C20          C21   1.427       .  A
C20         H377   1.078       .  S
C21          C22   1.409       .  A
C21         C109   1.519       .  S
C22          C23   1.393       .  A
C22          H26   1.078       .  S
C23          C24   1.418       .  A
C23         C135   1.484       .  S
C24          H27   1.084       .  S
H25         C372   1.078   1_545  S
C28          C29   1.394       .  A
C28          C33   1.385       .  A
C28          C84   1.450       .  S
C29          C30   1.409       .  A
C29         H386   1.078       .  S
C30          C31   1.420       .  A
C30         C118   1.496       .  S
C31          C32   1.400       .  A
C31          H35   1.080       .  S
C32          C33   1.383       .  A
C32         C161   1.457       .  S
C33          H36   1.086       .  S
H34         C381   1.078   1_545  S
O37        Ni219   1.909       .  S
O37         C762   1.268   1_455  A
O38         Ni61   1.917       .  S
O38         C751   1.272   1_455  A
O39          H62   0.966       .  S
O39        Ni747   1.881   1_554  S
O39        Ni765   1.885       .  S
O39        Ni407   1.927       .  S
C40         C177   1.479       .  S
C40          O49   1.279       .  A
C40         O233   1.291       .  A
O41        Ni412   1.907       .  S
O41          C47   1.267       .  A
O42        Ni412   1.914       .  S
O42          C44   1.266       .  A
Ni43         O46   1.924   1_556  S
Ni43         O48   1.921   1_556  S
Ni43        O213   1.909       .  S
Ni43        O743   1.881   1_456  S
C44          O54   1.282       .  A
O45         Ni61   1.951       .  S
O45          C51   1.288       .  A
O46          C51   1.279       .  A
C47          C76   1.448       .  S
C47         O742   1.272       .  A
O48          C50   1.268       .  A
O49         Ni60   1.916       .  S
C50         C459   1.507       .  S
C50          O56   1.280       .  A
C51          C89   1.480       .  S
H52         O757   0.966   1_455  S
O53         H756   0.966       .  S
O53         Ni55   1.881       .  S
O53         Ni60   1.875       .  S
O53       Ni1117   1.919   1_545  S
O54        Ni407   1.979       .  S
Ni55        O406   1.979   1_545  S
Ni55        O587   1.921   1_554  S
Ni55        O233   1.957       .  S
Ni55        O391   1.927   1_545  S
O56         Ni61   1.970       .  S
O57        Ni231   1.957       .  S
O57         C216   1.291       .  A
C58          C70   1.451       .  S
C58          O59   1.273       .  A
C58         O741   1.268       .  A
O59        Ni583   1.921       .  S
Ni60        O393   1.907   1_545  S
Ni60        O394   1.914   1_545  S
Ni61        O743   1.885   1_455  S
Ni61       O1109   1.919   1_455  S
O63         Ni69   1.916       .  S
O63          C84   1.266       .  A
O64         Ni87   1.884       .  S
O64          C73   1.260       .  A
O65          H88   0.966       .  S
O65         Ni69   1.871       .  S
O65         Ni81   1.930       .  S
O65        Ni791   1.900       .  S
C66          O83   1.277       .  A
C66         O779   1.281       .  A
O67         Ni86   1.904       .  S
O67         C425   1.263   1_545  A
O68         Ni86   1.881       .  S
O68        C1126   1.260   1_455  A
Ni69         O72   1.911       .  S
Ni69         O74   1.888       .  S
C70          O80   1.267       .  A
C70        O1124   1.260       .  A
O71         Ni87   1.940       .  S
O71          C77   1.274       .  A
O72         C781   1.283       .  A
C73         C468   1.445       .  S
C73         O419   1.263       .  A
O74          C76   1.262       .  A
O75         Ni86   1.901       .  S
O75         C770   1.281   1_455  A
C76         O786   1.266       .  A
C77         C102   1.495       .  S
C77         O776   1.283   1_455  A
H78          O79   0.966       .  S
O79         Ni86   1.868       .  S
O79        Ni439   1.923   1_545  S
O79       Ni1137   1.891   1_455  S
O80         Ni81   1.928       .  S
Ni81         O85   1.884       .  S
Ni81        O435   1.939       .  S
Ni81       O1135   1.891       .  S
O82         Ni87   1.919       .  S
O82         C780   1.266   1_455  A
O83        Ni433   1.939       .  S
C84          O85   1.261       .  A
Ni87        O769   1.900   1_455  S
Ni87        O431   1.923       .  S
C89          C90   1.414       .  A
C89          C94   1.393       .  A
C90          C91   1.429       .  A
C90         H799   1.079   1_455  S
C91          C92   1.415       .  A
C91         C709   1.535   1_455  S
C92          C93   1.416       .  A
C92          H96   1.080       .  S
C93          C94   1.395       .  A
C93         C139   1.474       .  S
C94          H97   1.085       .  S
H95         C794   1.079       .  S
C98          C99   1.406       .  A
C98         C103   1.433       .  A
C98         C165   1.501       .  S
C99         C100   1.396       .  A
C99         H104   1.082       .  S
C100        C805   1.378       .  A
C100        C716   1.477   1_455  S
C101        C804   1.378       .  A
C101        C806   1.395       .  A
C101        H105   1.083       .  S
C102        C103   1.428       .  A
C102        C805   1.395       .  A
C103        H106   1.082       .  S
C107        C112   1.408   1_565  A
C107        C460   1.410       .  A
C107        C402   1.507       .  S
C108        C109   1.427       .  A
C108        C459   1.410       .  A
C108        H113   1.079       .  S
C109        C462   1.411       .  A
C110        C111   1.399       .  A
C110        C461   1.411   1_545  A
C110        H114   1.078       .  S
C111        C112   1.419       .  A
C111        C146   1.487       .  S
C112        H115   1.084       .  S
C116        C121   1.384       .  A
C116        C469   1.392   1_545  A
C116        C425   1.445   1_545  S
C117        C118   1.409       .  A
C117        C468   1.392       .  A
C117        H122   1.080       .  S
C118        C471   1.421       .  A
C119        C120   1.400       .  A
C119        C470   1.421   1_545  A
C119        H123   1.078       .  S
C120        C121   1.378       .  A
C120        C172   1.452       .  S
C121        H124   1.086       .  S
O125       Ni131   1.911       .  S
O125        C146   1.268       .  A
O126       Ni149   1.942       .  S
O126        C135   1.278       .  A
O127        H150   0.966       .  S
O127       Ni131   1.933       .  S
O127       Ni149   1.922       .  S
O127       Ni143   1.928       .  S
C128        C179   1.480       .  S
C128        O145   1.282       .  A
C128        O137   1.268       .  A
O129       Ni148   1.901       .  S
O129        C135   1.262       .  A
O130       Ni324   1.910       .  S
O130        C132   1.267       .  A
Ni131       O134   1.912       .  S
Ni131       O136   1.915       .  S
C132        C164   1.490       .  S
C132        O142   1.282       .  A
O133       Ni149   1.920       .  S
O133        C139   1.272       .  A
O134        C139   1.264       .  A
O136        C138   1.273       .  A
O137       Ni148   1.890       .  S
C138        C158   1.493       .  S
C138        O144   1.288       .  A
H140        O141   0.966       .  S
O141       Ni149   1.907       .  S
O141       Ni143   1.921       .  S
O141       Ni148   1.928       .  S
O142       Ni319   1.957       .  S
Ni143       O147   1.938       .  S
Ni143       O145   1.944       .  S
Ni143       O318   1.957   1_554  S
O144       Ni149   1.970       .  S
C146        O147   1.282       .  A
Ni148       O306   1.910   1_554  S
O151       Ni157   1.931       .  S
O151        C172   1.272       .  A
O152       Ni175   1.897       .  S
O152        C161   1.265       .  A
O153        H176   0.966       .  S
O153       Ni157   1.898       .  S
O153       Ni175   1.900       .  S
O153       Ni169   1.927       .  S
C154        O171   1.275       .  A
C154        O163   1.284       .  A
O155       Ni174   1.920       .  S
O155        C161   1.270       .  A
O156       Ni174   1.904       .  S
O156        C158   1.264       .  A
Ni157       O160   1.939       .  S
Ni157       O162   1.905       .  S
C158        O168   1.280       .  A
O159       Ni175   1.935       .  S
O159        C165   1.275       .  A
O160        C165   1.286       .  A
O162        C164   1.264       .  A
O163       Ni174   1.924       .  S
C164        O170   1.279       .  A
H166        O167   0.966       .  S
O167       Ni175   1.922       .  S
O167       Ni169   1.895       .  S
O167       Ni174   1.891       .  S
O168       Ni169   1.964       .  S
Ni169       O173   1.886       .  S
Ni169       O171   1.934       .  S
O170       Ni175   1.958       .  S
C172        O173   1.264       .  A
C177        C178   1.402       .  A
C178        C179   1.394       .  A
C178        H183   1.084       .  S
C180        C181   1.407       .  A
C180        H184   1.078       .  S
C181        C182   1.427       .  A
C181        C971   1.535       .  S
C182        H889   1.080       .  S
H185        C886   1.080   1_455  S
C186        C187   1.400       .  A
C186        C191   1.424       .  A
C186        C330   1.491       .  S
C187        C188   1.394       .  A
C187        H192   1.082       .  S
C188        C189   1.380       .  A
C188        C980   1.477       .  S
C189        C190   1.401       .  A
C189        H897   1.083       .  S
C190        C191   1.425       .  A
C190        C242   1.489       .  S
C191        H194   1.083       .  S
H193        C893   1.083   1_455  S
C195        C196   1.414       .  A
C195        C200   1.411       .  A
C195        C220   1.507       .  S
C196        C197   1.427       .  A
C196        H553   1.078       .  S
C197        C198   1.409       .  A
C197        C285   1.519       .  S
C198        C199   1.393       .  A
C198        H202   1.078       .  S
C199        C200   1.418       .  A
C199        C311   1.484       .  S
C200        H203   1.084       .  S
H201        C548   1.078   1_545  S
C204        C205   1.394       .  A
C204        C209   1.385       .  A
C204        C260   1.450       .  S
C205        C206   1.409       .  A
C205        H562   1.078       .  S
C206        C207   1.420       .  A
C206        C294   1.496       .  S
C207        C208   1.400       .  A
C207        H211   1.080       .  S
C208        C209   1.383       .  A
C208        C337   1.457       .  S
C209        H212   1.086       .  S
H210        C557   1.078   1_545  S
O213        C938   1.268   1_455  A
O214       Ni237   1.917       .  S
O214        C927   1.272   1_455  A
O215        H238   0.966       .  S
O215       Ni923   1.881       .  S
O215       Ni941   1.885       .  S
O215       Ni583   1.927       .  S
C216        O225   1.279       .  A
O217       Ni588   1.907       .  S
O217        C223   1.267       .  A
O218       Ni588   1.914       .  S
O218        C220   1.266       .  A
Ni219       O222   1.924       .  S
Ni219       O224   1.921       .  S
Ni219       O919   1.881   1_455  S
C220        O230   1.282       .  A
O221       Ni237   1.951       .  S
O221        C227   1.288       .  A
O222        C227   1.279       .  A
C223        C252   1.448       .  S
C223        O918   1.272       .  A
O224        C226   1.268       .  A
O225       Ni236   1.916       .  S
C226        C635   1.507       .  S
C226        O232   1.280       .  A
C227        C265   1.480       .  S
H228        O933   0.966   1_455  S
O229        H932   0.966       .  S
O229      Ni1293   1.919   1_545  S
O229       Ni231   1.881       .  S
O229       Ni236   1.875       .  S
O230       Ni583   1.979       .  S
Ni231       O582   1.979   1_545  S
Ni231       O411   1.921       .  S
Ni231       O567   1.927   1_545  S
O232       Ni237   1.970       .  S
C234        C246   1.451       .  S
C234        O917   1.268       .  A
C234        O235   1.273       .  A
O235       Ni407   1.921   1_556  S
Ni236       O569   1.907   1_545  S
Ni236       O570   1.914   1_545  S
Ni237       O919   1.885   1_455  S
Ni237      O1285   1.919   1_455  S
O239       Ni245   1.916       .  S
O239        C260   1.266       .  A
O240       Ni263   1.884       .  S
O240        C249   1.260       .  A
O241        H264   0.966       .  S
O241       Ni245   1.871       .  S
O241       Ni967   1.900       .  S
O241       Ni257   1.930       .  S
C242        O259   1.277       .  A
C242        O955   1.281       .  A
O243       Ni262   1.904       .  S
O243        C601   1.263   1_545  A
O244       Ni262   1.881       .  S
O244       C1302   1.260   1_455  A
Ni245       O248   1.911       .  S
Ni245       O250   1.888       .  S
C246       O1300   1.260       .  A
C246        O256   1.267       .  A
O247       Ni263   1.940       .  S
O247        C253   1.274       .  A
O248        C957   1.283       .  A
C249        C644   1.445       .  S
C249        O595   1.263       .  A
O250        C252   1.262       .  A
O251       Ni262   1.901       .  S
O251        C946   1.281   1_455  A
C252        O962   1.266       .  A
C253        C278   1.495       .  S
C253        O952   1.283   1_455  A
H254        O255   0.966       .  S
O255       Ni615   1.923   1_545  S
O255      Ni1313   1.891   1_455  S
O255       Ni262   1.868       .  S
O256       Ni257   1.928       .  S
Ni257       O261   1.884       .  S
Ni257       O611   1.939       .  S
Ni257      O1311   1.891       .  S
O258       Ni263   1.919       .  S
O258        C956   1.266   1_455  A
O259       Ni609   1.939       .  S
C260        O261   1.261       .  A
Ni263       O945   1.900   1_455  S
Ni263       O607   1.923       .  S
C265        C266   1.414       .  A
C265        C270   1.393       .  A
C266        C267   1.429       .  A
C266        H975   1.079   1_455  S
C267        C268   1.415       .  A
C267        C885   1.535   1_455  S
C268        C269   1.416       .  A
C268        H272   1.080       .  S
C269        C270   1.395       .  A
C269        C315   1.474       .  S
C270        H273   1.085       .  S
H271        C970   1.079       .  S
C274        C275   1.406       .  A
C274        C279   1.433       .  A
C274        C341   1.501       .  S
C275        C276   1.396       .  A
C275        H280   1.082       .  S
C276        C981   1.378       .  A
C276        C892   1.477   1_455  S
C277        C980   1.378       .  A
C277        C982   1.395       .  A
C277        H281   1.083       .  S
C278        C981   1.395       .  A
C278        C279   1.428       .  A
C279        H282   1.082       .  S
C283        C636   1.410       .  A
C283        C288   1.408   1_565  A
C283        C578   1.507       .  S
C284        C635   1.410       .  A
C284        C285   1.427       .  A
C284        H289   1.079       .  S
C285        C638   1.411       .  A
C286        C637   1.411   1_545  A
C286        C287   1.399       .  A
C286        H290   1.078       .  S
C287        C288   1.419       .  A
C287        C322   1.487       .  S
C288        H291   1.084       .  S
C292        C645   1.392   1_545  A
C292        C297   1.384       .  A
C292        C601   1.445   1_545  S
C293        C644   1.392       .  A
C293        C294   1.409       .  A
C293        H298   1.080       .  S
C294        C647   1.421       .  A
C295        C646   1.421   1_545  A
C295        C296   1.400       .  A
C295        H299   1.078       .  S
C296        C297   1.378       .  A
C296        C348   1.452       .  S
C297        H300   1.086       .  S
O301       Ni307   1.911       .  S
O301        C322   1.268       .  A
O302       Ni325   1.942       .  S
O302        C311   1.278       .  A
O303        H326   0.966       .  S
O303       Ni307   1.933       .  S
O303       Ni325   1.922       .  S
O303       Ni319   1.928       .  S
C304        O321   1.282       .  A
C304        O313   1.268       .  A
O305       Ni324   1.901       .  S
O305        C311   1.262       .  A
O306        C308   1.267       .  A
Ni307       O310   1.912       .  S
Ni307       O312   1.915       .  S
C308        C340   1.490       .  S
C308        O318   1.282       .  A
O309       Ni325   1.920       .  S
O309        C315   1.272       .  A
O310        C315   1.264       .  A
O312        C314   1.273       .  A
O313       Ni324   1.890       .  S
C314        C334   1.493       .  S
C314        O320   1.288       .  A
H316        O317   0.966       .  S
O317       Ni325   1.907       .  S
O317       Ni319   1.921       .  S
O317       Ni324   1.928       .  S
Ni319       O323   1.938       .  S
Ni319       O321   1.944       .  S
O320       Ni325   1.970       .  S
C322        O323   1.282       .  A
O327       Ni333   1.931       .  S
O327        C348   1.272       .  A
O328       Ni351   1.897       .  S
O328        C337   1.265       .  A
O329        H352   0.966       .  S
O329       Ni333   1.898       .  S
O329       Ni351   1.900       .  S
O329       Ni345   1.927       .  S
C330        O347   1.275       .  A
C330        O339   1.284       .  A
O331       Ni350   1.920       .  S
O331        C337   1.270       .  A
O332       Ni350   1.904       .  S
O332        C334   1.264       .  A
Ni333       O336   1.939       .  S
Ni333       O338   1.905       .  S
C334        O344   1.280       .  A
O335       Ni351   1.935       .  S
O335        C341   1.275       .  A
O336        C341   1.286       .  A
O338        C340   1.264       .  A
O339       Ni350   1.924       .  S
C340        O346   1.279       .  A
H342        O343   0.966       .  S
O343       Ni351   1.922       .  S
O343       Ni345   1.895       .  S
O343       Ni350   1.891       .  S
O344       Ni345   1.964       .  S
Ni345       O349   1.886       .  S
Ni345       O347   1.934       .  S
O346       Ni351   1.958       .  S
C348        O349   1.264       .  A
C353        C354   1.402       .  A
C353        C534   1.423       .  A
C353        C568   1.479       .  S
C354        C355   1.394       .  A
C354        H359   1.084       .  S
C355        C532   1.412       .  A
C355        C656   1.480       .  S
C356        C531   1.412       .  A
C356        C357   1.407       .  A
C356        H360   1.078       .  S
C357        C358   1.427       .  A
C357       C1147   1.535       .  S
C358        C529   1.423       .  A
C358       H1065   1.080       .  S
H361       C1062   1.080   1_455  S
C362        C363   1.400       .  A
C362        C367   1.424       .  A
C362        C506   1.491       .  S
C363        C364   1.394       .  A
C363        H368   1.082       .  S
C364        C365   1.380       .  A
C364       C1156   1.477       .  S
C365        C366   1.401       .  A
C365       H1073   1.083       .  S
C366        C367   1.425       .  A
C366        C418   1.489       .  S
C367        H370   1.083       .  S
H369       C1069   1.083   1_455  S
C371        C372   1.414       .  A
C371        C376   1.411       .  A
C371        C396   1.507       .  S
C372        C373   1.427       .  A
C373        C374   1.409       .  A
C373        C461   1.519       .  S
C374        C375   1.393       .  A
C374        H378   1.078       .  S
C375        C376   1.418       .  A
C375        C487   1.484       .  S
C376        H379   1.084       .  S
C380        C381   1.394       .  A
C380        C385   1.385       .  A
C380        C436   1.450       .  S
C381        C382   1.409       .  A
C382        C383   1.420       .  A
C382        C470   1.496       .  S
C383        C384   1.400       .  A
C383        H387   1.080       .  S
C384        C385   1.383       .  A
C384        C513   1.457       .  S
C385        H388   1.086       .  S
O389       Ni571   1.909       .  S
O389       C1114   1.268   1_465  A
O390       Ni413   1.918       .  S
O390       C1103   1.272   1_455  A
O391        H414   0.966       .  S
O391      Ni1099   1.881   1_554  S
O391      Ni1117   1.885       .  S
C392        C529   1.479       .  S
C392        O585   1.291       .  A
C392        O401   1.279       .  A
O393        C399   1.267       .  A
O394        C396   1.266       .  A
Ni395       O565   1.909       .  S
Ni395       O398   1.924   1_556  S
Ni395       O400   1.921   1_556  S
Ni395      O1095   1.881   1_456  S
C396        O406   1.282       .  A
O397       Ni413   1.951       .  S
O397        C403   1.288       .  A
O398        C403   1.279       .  A
C399        C428   1.448       .  S
C399       O1094   1.272       .  A
O400        C402   1.268       .  A
O401       Ni412   1.916       .  S
C402        O408   1.280       .  A
C403        C441   1.480       .  S
H404       O1109   0.966   1_455  S
O405       H1108   0.966       .  S
O405       Ni765   1.919       .  S
O405       Ni407   1.881       .  S
O405       Ni412   1.875       .  S
Ni407       O585   1.957       .  S
O408       Ni413   1.970       .  S
O409       Ni583   1.957       .  S
O409        C568   1.291       .  A
C410        C422   1.451       .  S
C410       O1093   1.268   1_545  A
C410        O411   1.273       .  A
Ni413      O1095   1.885   1_455  S
Ni413       O757   1.919   1_465  S
O415       Ni421   1.916       .  S
O415        C436   1.266       .  A
O416       Ni439   1.884       .  S
O416        C425   1.260       .  A
O417        H440   0.966       .  S
O417       Ni421   1.871       .  S
O417      Ni1143   1.900       .  S
O417       Ni433   1.930   1_565  S
C418        O435   1.277       .  A
C418       O1131   1.281       .  A
O419       Ni438   1.904       .  S
O420       Ni438   1.881       .  S
O420        C774   1.260   1_455  A
Ni421       O424   1.911       .  S
Ni421       O426   1.888       .  S
C422        O772   1.260       .  A
C422        O432   1.267       .  A
O423       Ni439   1.939       .  S
O423        C429   1.274       .  A
O424       C1133   1.283       .  A
O426        C428   1.262       .  A
O427       Ni438   1.901       .  S
O427       C1122   1.281   1_455  A
C428       O1138   1.266       .  A
C429        C454   1.495       .  S
C429       O1128   1.283   1_455  A
H430        O431   0.966       .  S
O431       Ni785   1.891   1_455  S
O431       Ni438   1.868       .  S
O432       Ni433   1.928       .  S
Ni433       O437   1.884   1_545  S
Ni433       O783   1.891       .  S
O434       Ni439   1.919       .  S
O434       C1132   1.266   1_455  A
C436        O437   1.261       .  A
Ni439      O1121   1.900   1_455  S
C441        C442   1.414       .  A
C441        C446   1.393       .  A
C442        C443   1.429       .  A
C442       H1151   1.079   1_455  S
C443        C444   1.415       .  A
C443       C1061   1.535   1_455  S
C444        C445   1.416       .  A
C444        H448   1.080       .  S
C445        C446   1.395       .  A
C445        C491   1.474       .  S
C446        H449   1.085       .  S
H447       C1146   1.079       .  S
C450        C451   1.406       .  A
C450        C455   1.433       .  A
C450        C517   1.501       .  S
C451        C452   1.396       .  A
C451        H456   1.082       .  S
C452       C1157   1.378       .  A
C452       C1068   1.477   1_455  S
C453       C1156   1.378       .  A
C453       C1158   1.395       .  A
C453        H457   1.083       .  S
C454       C1157   1.395       .  A
C454        C455   1.428       .  A
C455        H458   1.082       .  S
C459        C464   1.408       .  A
C460        C461   1.427       .  A
C460        H465   1.079       .  S
C462        C463   1.399       .  A
C462        H466   1.078       .  S
C463        C464   1.419       .  A
C463        C498   1.487       .  S
C464        H467   1.084       .  S
C468        C473   1.384       .  A
C469        C470   1.409       .  A
C469        H474   1.080       .  S
C471        C472   1.400       .  A
C471        H475   1.078       .  S
C472        C473   1.378       .  A
C472        C524   1.452       .  S
C473        H476   1.086       .  S
O477       Ni483   1.911       .  S
O477        C498   1.268       .  A
O478       Ni501   1.942       .  S
O478        C487   1.278       .  A
O479        H502   0.966       .  S
O479       Ni483   1.933       .  S
O479       Ni501   1.922       .  S
O479       Ni495   1.928       .  S
C480        C531   1.480       .  S
C480        O497   1.282       .  A
C480        O489   1.268       .  A
O481       Ni500   1.901       .  S
O481        C487   1.262       .  A
O482       Ni676   1.911       .  S
O482        C484   1.267       .  A
Ni483       O486   1.912       .  S
Ni483       O488   1.915       .  S
C484        C516   1.490       .  S
C484        O494   1.282       .  A
O485       Ni501   1.920       .  S
O485        C491   1.272       .  A
O486        C491   1.264       .  A
O488        C490   1.273       .  A
O489       Ni500   1.890       .  S
C490        C510   1.493       .  S
C490        O496   1.287       .  A
H492        O493   0.966       .  S
O493       Ni501   1.907       .  S
O493       Ni495   1.921       .  S
O493       Ni500   1.928       .  S
O494       Ni671   1.957       .  S
Ni495       O670   1.957   1_554  S
Ni495       O499   1.938       .  S
Ni495       O497   1.944       .  S
O496       Ni501   1.969       .  S
C498        O499   1.282       .  A
Ni500       O658   1.911   1_554  S
O503       Ni509   1.931       .  S
O503        C524   1.272       .  A
O504       Ni527   1.896       .  S
O504        C513   1.265       .  A
O505        H528   0.966       .  S
O505       Ni509   1.898       .  S
O505       Ni527   1.900       .  S
O505       Ni521   1.927       .  S
C506        O523   1.275       .  A
C506        O515   1.284       .  A
O507       Ni526   1.920       .  S
O507        C513   1.270       .  A
O508       Ni526   1.904       .  S
O508        C510   1.264       .  A
Ni509       O512   1.939       .  S
Ni509       O514   1.905       .  S
C510        O520   1.280       .  A
O511       Ni527   1.935       .  S
O511        C517   1.275       .  A
O512        C517   1.286       .  A
O514        C516   1.264       .  A
O515       Ni526   1.924       .  S
C516        O522   1.279       .  A
H518        O519   0.966       .  S
O519       Ni527   1.922       .  S
O519       Ni521   1.895       .  S
O519       Ni526   1.891       .  S
O520       Ni521   1.964       .  S
Ni521       O525   1.886       .  S
Ni521       O523   1.934       .  S
O522       Ni527   1.958       .  S
C524        O525   1.264       .  A
C529        C530   1.402       .  A
C530        C531   1.394       .  A
C530        H535   1.084       .  S
C532        C533   1.407       .  A
C532        H536   1.078       .  S
C533        C534   1.427       .  A
C533       C1323   1.535       .  S
C534       H1241   1.080       .  S
H537       C1238   1.080   1_455  S
C538        C539   1.400       .  A
C538        C543   1.424       .  A
C538        C682   1.491       .  S
C539        C540   1.394       .  A
C539        H544   1.082       .  S
C540        C541   1.380       .  A
C540       C1332   1.477       .  S
C541        C542   1.401       .  A
C541       H1249   1.083       .  S
C542        C543   1.425       .  A
C542        C594   1.489       .  S
C543        H546   1.083       .  S
H545       C1245   1.083   1_455  S
C547        C548   1.414       .  A
C547        C552   1.411       .  A
C547        C572   1.507       .  S
C548        C549   1.427       .  A
C549        C550   1.409       .  A
C549        C637   1.519       .  S
C550        C551   1.393       .  A
C550        H554   1.078       .  S
C551        C552   1.418       .  A
C551        C663   1.484       .  S
C552        H555   1.084       .  S
C556        C557   1.394       .  A
C556        C561   1.385       .  A
C556        C612   1.450       .  S
C557        C558   1.409       .  A
C558        C559   1.420       .  A
C558        C646   1.496       .  S
C559        C560   1.400       .  A
C559        H563   1.080       .  S
C560        C561   1.383       .  A
C560        C689   1.457       .  S
C561        H564   1.086       .  S
O565       C1290   1.268   1_465  A
O566       Ni589   1.918       .  S
O566       C1279   1.272   1_455  A
O567        H590   0.966       .  S
O567      Ni1275   1.881       .  S
O567      Ni1293   1.885       .  S
C568        O577   1.279       .  A
O569        C575   1.267       .  A
O570        C572   1.266       .  A
Ni571       O574   1.924       .  S
Ni571       O576   1.921       .  S
Ni571      O1271   1.881   1_455  S
C572        O582   1.282       .  A
O573       Ni589   1.951       .  S
O573        C579   1.288       .  A
O574        C579   1.279       .  A
C575        C604   1.448       .  S
C575       O1270   1.272       .  A
O576        C578   1.268       .  A
O577       Ni588   1.916       .  S
C578        O584   1.280       .  A
C579        C617   1.480       .  S
H580       O1285   0.966   1_455  S
O581       H1284   0.966       .  S
O581       Ni941   1.919       .  S
O581       Ni583   1.881       .  S
O581       Ni588   1.875       .  S
O584       Ni589   1.970       .  S
C586        C598   1.451       .  S
C586       O1269   1.268   1_545  A
C586        O587   1.273       .  A
Ni589      O1271   1.885   1_455  S
Ni589       O933   1.919   1_465  S
O591       Ni597   1.916       .  S
O591        C612   1.266       .  A
O592       Ni615   1.884       .  S
O592        C601   1.260       .  A
O593        H616   0.966       .  S
O593       Ni597   1.871       .  S
O593      Ni1319   1.900       .  S
O593       Ni609   1.930   1_565  S
C594        O611   1.277       .  A
C594       O1307   1.281       .  A
O595       Ni614   1.904       .  S
O596       Ni614   1.881       .  S
O596        C950   1.260   1_455  A
Ni597       O600   1.911       .  S
Ni597       O602   1.888       .  S
C598        O948   1.260       .  A
C598        O608   1.267       .  A
O599       Ni615   1.939       .  S
O599        C605   1.274       .  A
O600       C1309   1.283       .  A
O602        C604   1.262       .  A
O603       Ni614   1.901       .  S
O603       C1298   1.281   1_455  A
C604       O1314   1.266       .  A
C605        C630   1.495       .  S
C605       O1304   1.283   1_455  A
H606        O607   0.966       .  S
O607       Ni961   1.891   1_455  S
O607       Ni614   1.868       .  S
O608       Ni609   1.928       .  S
Ni609       O613   1.884   1_545  S
Ni609       O959   1.891       .  S
O610       Ni615   1.919       .  S
O610       C1308   1.266   1_455  A
C612        O613   1.261       .  A
Ni615      O1297   1.900   1_455  S
C617        C618   1.414       .  A
C617        C622   1.393       .  A
C618        C619   1.429       .  A
C618       H1327   1.079   1_455  S
C619        C620   1.415       .  A
C619       C1237   1.535   1_455  S
C620        C621   1.416       .  A
C620        H624   1.080       .  S
C621        C622   1.395       .  A
C621        C667   1.474       .  S
C622        H625   1.085       .  S
H623       C1322   1.079       .  S
C626        C627   1.406       .  A
C626        C631   1.433       .  A
C626        C693   1.501       .  S
C627        C628   1.396       .  A
C627        H632   1.082       .  S
C628       C1333   1.378       .  A
C628       C1244   1.477   1_455  S
C629       C1332   1.378       .  A
C629       C1334   1.395       .  A
C629        H633   1.083       .  S
C630       C1333   1.395       .  A
C630        C631   1.428       .  A
C631        H634   1.082       .  S
C635        C640   1.408       .  A
C636        C637   1.427       .  A
C636        H641   1.079       .  S
C638        C639   1.399       .  A
C638        H642   1.078       .  S
C639        C640   1.419       .  A
C639        C674   1.487       .  S
C640        H643   1.084       .  S
C644        C649   1.384       .  A
C645        C646   1.409       .  A
C645        H650   1.080       .  S
C647        C648   1.400       .  A
C647        H651   1.078       .  S
C648        C649   1.378       .  A
C648        C700   1.452       .  S
C649        H652   1.086       .  S
O653       Ni659   1.911       .  S
O653        C674   1.268       .  A
O654       Ni677   1.942       .  S
O654        C663   1.278       .  A
O655        H678   0.966       .  S
O655       Ni659   1.933       .  S
O655       Ni677   1.922       .  S
O655       Ni671   1.928       .  S
C656        O673   1.282       .  A
C656        O665   1.268       .  A
O657       Ni676   1.901       .  S
O657        C663   1.262       .  A
O658        C660   1.267       .  A
Ni659       O662   1.912       .  S
Ni659       O664   1.915       .  S
C660        C692   1.490       .  S
C660        O670   1.282       .  A
O661       Ni677   1.920       .  S
O661        C667   1.272       .  A
O662        C667   1.264       .  A
O664        C666   1.273       .  A
O665       Ni676   1.890       .  S
C666        C686   1.493       .  S
C666        O672   1.287       .  A
H668        O669   0.966       .  S
O669       Ni677   1.907       .  S
O669       Ni671   1.921       .  S
O669       Ni676   1.928       .  S
Ni671       O675   1.938       .  S
Ni671       O673   1.944       .  S
O672       Ni677   1.969       .  S
C674        O675   1.282       .  A
O679       Ni685   1.931       .  S
O679        C700   1.272       .  A
O680       Ni703   1.896       .  S
O680        C689   1.265       .  A
O681        H704   0.966       .  S
O681       Ni685   1.898       .  S
O681       Ni703   1.900       .  S
O681       Ni697   1.927       .  S
C682        O699   1.275       .  A
C682        O691   1.284       .  A
O683       Ni702   1.920       .  S
O683        C689   1.270       .  A
O684       Ni702   1.904       .  S
O684        C686   1.264       .  A
Ni685       O688   1.939       .  S
Ni685       O690   1.905       .  S
C686        O696   1.280       .  A
O687       Ni703   1.935       .  S
O687        C693   1.275       .  A
O688        C693   1.286       .  A
O690        C692   1.264       .  A
O691       Ni702   1.924       .  S
C692        O698   1.279       .  A
H694        O695   0.966       .  S
O695       Ni703   1.922       .  S
O695       Ni697   1.895       .  S
O695       Ni702   1.891       .  S
O696       Ni697   1.964       .  S
Ni697       O701   1.886       .  S
Ni697       O699   1.934       .  S
O698       Ni703   1.958       .  S
C700        O701   1.264       .  A
C705        C706   1.402       .  A
C705        C886   1.423       .  A
C705        C920   1.479       .  S
C706        C707   1.394       .  A
C706        H711   1.084       .  S
C707        C884   1.412       .  A
C707       C1008   1.480       .  S
C708        C883   1.412       .  A
C708        C709   1.407       .  A
C708        H712   1.078       .  S
C709        C710   1.427       .  A
C710        C881   1.423       .  A
C714        C715   1.400       .  A
C714        C719   1.424       .  A
C714        C858   1.491       .  S
C715        C716   1.394       .  A
C715        H720   1.082       .  S
C716        C717   1.380       .  A
C717        C718   1.401       .  A
C718        C719   1.425       .  A
C718        C770   1.489       .  S
C719        H722   1.083       .  S
C723        C724   1.414       .  A
C723        C728   1.411       .  A
C723        C748   1.507       .  S
C724        C725   1.427       .  A
C724       H1081   1.078       .  S
C725        C726   1.409       .  A
C725        C813   1.519       .  S
C726        C727   1.393       .  A
C726        H730   1.078       .  S
C727        C728   1.418       .  A
C727        C839   1.484       .  S
C728        H731   1.084       .  S
H729       C1076   1.078   1_545  S
C732        C733   1.394       .  A
C732        C737   1.385       .  A
C732        C788   1.450       .  S
C733        C734   1.409       .  A
C733       H1090   1.078       .  S
C734        C735   1.420       .  A
C734        C822   1.496       .  S
C735        C736   1.400       .  A
C735        H739   1.080       .  S
C736        C737   1.383       .  A
C736        C865   1.457       .  S
C737        H740   1.086       .  S
H738       C1085   1.078   1_545  S
O741       Ni923   1.909       .  S
O742       Ni765   1.917       .  S
O743        H766   0.966       .  S
O743      Ni1111   1.927       .  S
C744        C881   1.479       .  S
C744        O937   1.291       .  A
C744        O753   1.279       .  A
O745      Ni1116   1.907       .  S
O745        C751   1.267       .  A
O746      Ni1116   1.914       .  S
O746        C748   1.266       .  A
Ni747       O917   1.909       .  S
Ni747       O750   1.924   1_556  S
Ni747       O752   1.921   1_556  S
C748        O758   1.282       .  A
O749       Ni765   1.951       .  S
O749        C755   1.288       .  A
O750        C755   1.279       .  A
C751        C780   1.448       .  S
O752        C754   1.268       .  A
O753       Ni764   1.916       .  S
C754       C1163   1.507       .  S
C754        O760   1.280       .  A
C755        C793   1.480       .  S
O757       Ni759   1.881       .  S
O757       Ni764   1.875       .  S
O758      Ni1111   1.979       .  S
Ni759      O1110   1.979   1_545  S
Ni759      O1291   1.921   1_554  S
Ni759       O937   1.957       .  S
Ni759      O1095   1.927   1_545  S
O760       Ni765   1.970       .  S
O761       Ni935   1.957       .  S
O761        C920   1.291       .  A
C762        C774   1.451       .  S
C762        O763   1.273       .  A
O763      Ni1287   1.921       .  S
Ni764      O1097   1.907   1_545  S
Ni764      O1098   1.914   1_545  S
O767       Ni773   1.916       .  S
O767        C788   1.266       .  A
O768       Ni791   1.884       .  S
O768        C777   1.260       .  A
O769        H792   0.966       .  S
O769       Ni773   1.871       .  S
O769       Ni785   1.930       .  S
C770        O787   1.277       .  A
O771       Ni790   1.904       .  S
O771       C1129   1.263   1_545  A
O772       Ni790   1.881       .  S
Ni773       O776   1.911       .  S
Ni773       O778   1.888       .  S
C774        O784   1.267       .  A
O775       Ni791   1.940       .  S
O775        C781   1.274       .  A
C777       C1172   1.445       .  S
C777       O1123   1.263       .  A
O778        C780   1.262       .  A
O779       Ni790   1.901       .  S
C781        C806   1.495       .  S
H782        O783   0.966       .  S
O783      Ni1143   1.923   1_545  S
O783       Ni790   1.868       .  S
O784       Ni785   1.928       .  S
Ni785       O789   1.884       .  S
Ni785      O1139   1.939       .  S
O786       Ni791   1.919       .  S
O787      Ni1137   1.939       .  S
C788        O789   1.261       .  A
Ni791      O1135   1.923       .  S
C793        C794   1.414       .  A
C793        C798   1.393       .  A
C794        C795   1.429       .  A
C795        C796   1.415       .  A
C796        C797   1.416       .  A
C796        H800   1.080       .  S
C797        C798   1.395       .  A
C797        C843   1.474       .  S
C798        H801   1.085       .  S
C802        C803   1.406       .  A
C802        C807   1.433       .  A
C802        C869   1.501       .  S
C803        C804   1.396       .  A
C803        H808   1.082       .  S
C805        H809   1.083   1_455  S
C806        C807   1.428       .  A
C807        H810   1.082       .  S
C811       C1164   1.410       .  A
C811        C816   1.408   1_565  A
C811       C1106   1.507       .  S
C812       C1163   1.410       .  A
C812        C813   1.427       .  A
C812        H817   1.079       .  S
C813       C1166   1.411       .  A
C814       C1165   1.411   1_545  A
C814        C815   1.399       .  A
C814        H818   1.078       .  S
C815        C816   1.419       .  A
C815        C850   1.487       .  S
C816        H819   1.084       .  S
C820       C1173   1.392   1_545  A
C820        C825   1.384       .  A
C820       C1129   1.445   1_545  S
C821       C1172   1.392       .  A
C821        C822   1.409       .  A
C821        H826   1.080       .  S
C822       C1175   1.421       .  A
C823       C1174   1.421   1_545  A
C823        C824   1.400       .  A
C823        H827   1.078       .  S
C824        C825   1.378       .  A
C824        C876   1.452       .  S
C825        H828   1.086       .  S
O829       Ni835   1.911       .  S
O829        C850   1.268       .  A
O830       Ni853   1.942       .  S
O830        C839   1.278       .  A
O831        H854   0.966       .  S
O831       Ni835   1.933       .  S
O831       Ni853   1.922       .  S
O831       Ni847   1.928       .  S
C832        C883   1.480       .  S
C832        O849   1.282       .  A
C832        O841   1.268       .  A
O833       Ni852   1.901       .  S
O833        C839   1.262       .  A
O834      Ni1028   1.910       .  S
O834        C836   1.267       .  A
Ni835       O838   1.912       .  S
Ni835       O840   1.915       .  S
C836        C868   1.490       .  S
C836        O846   1.282       .  A
O837       Ni853   1.920       .  S
O837        C843   1.272       .  A
O838        C843   1.264       .  A
O840        C842   1.273       .  A
O841       Ni852   1.890       .  S
C842        C862   1.493       .  S
C842        O848   1.288       .  A
H844        O845   0.966       .  S
O845       Ni853   1.907       .  S
O845       Ni847   1.921       .  S
O845       Ni852   1.928       .  S
O846      Ni1023   1.957       .  S
Ni847      O1022   1.957   1_554  S
Ni847       O851   1.938       .  S
Ni847       O849   1.944       .  S
O848       Ni853   1.970       .  S
C850        O851   1.282       .  A
Ni852      O1010   1.910   1_554  S
O855       Ni861   1.931       .  S
O855        C876   1.272       .  A
O856       Ni879   1.897       .  S
O856        C865   1.265       .  A
O857        H880   0.966       .  S
O857       Ni861   1.898       .  S
O857       Ni879   1.900       .  S
O857       Ni873   1.927       .  S
C858        O875   1.275       .  A
C858        O867   1.284       .  A
O859       Ni878   1.920       .  S
O859        C865   1.270       .  A
O860       Ni878   1.904       .  S
O860        C862   1.264       .  A
Ni861       O864   1.939       .  S
Ni861       O866   1.905       .  S
C862        O872   1.280       .  A
O863       Ni879   1.935       .  S
O863        C869   1.275       .  A
O864        C869   1.286       .  A
O866        C868   1.264       .  A
O867       Ni878   1.924       .  S
C868        O874   1.279       .  A
H870        O871   0.966       .  S
O871       Ni879   1.922       .  S
O871       Ni873   1.895       .  S
O871       Ni878   1.891       .  S
O872       Ni873   1.964       .  S
Ni873       O877   1.886       .  S
Ni873       O875   1.934       .  S
O874       Ni879   1.958       .  S
C876        O877   1.264       .  A
C881        C882   1.402       .  A
C882        C883   1.394       .  A
C882        H887   1.084       .  S
C884        C885   1.407       .  A
C884        H888   1.078       .  S
C885        C886   1.427       .  A
C890        C891   1.400       .  A
C890        C895   1.424       .  A
C890       C1034   1.491       .  S
C891        C892   1.394       .  A
C891        H896   1.082       .  S
C892        C893   1.380       .  A
C893        C894   1.401       .  A
C894        C895   1.425       .  A
C894        C946   1.489       .  S
C895        H898   1.083       .  S
C899        C900   1.414       .  A
C899        C904   1.411       .  A
C899        C924   1.507       .  S
C900        C901   1.427       .  A
C900       H1257   1.078       .  S
C901        C902   1.409       .  A
C901        C989   1.519       .  S
C902        C903   1.393       .  A
C902        H906   1.078       .  S
C903        C904   1.418       .  A
C903       C1015   1.484       .  S
C904        H907   1.084       .  S
H905       C1252   1.078   1_545  S
C908        C909   1.394       .  A
C908        C913   1.385       .  A
C908        C964   1.450       .  S
C909        C910   1.409       .  A
C909       H1266   1.078       .  S
C910        C911   1.420       .  A
C910        C998   1.496       .  S
C911        C912   1.400       .  A
C911        H915   1.080       .  S
C912        C913   1.383       .  A
C912       C1041   1.457       .  S
C913        H916   1.086       .  S
H914       C1261   1.078   1_545  S
O918       Ni941   1.917       .  S
O919        H942   0.966       .  S
O919      Ni1287   1.927       .  S
C920        O929   1.279       .  A
O921      Ni1292   1.907       .  S
O921        C927   1.267       .  A
O922      Ni1292   1.914       .  S
O922        C924   1.266       .  A
Ni923       O926   1.924       .  S
Ni923       O928   1.921       .  S
C924        O934   1.282       .  A
O925       Ni941   1.951       .  S
O925        C931   1.288       .  A
O926        C931   1.279       .  A
C927        C956   1.448       .  S
O928        C930   1.268       .  A
O929       Ni940   1.916       .  S
C930       C1339   1.507       .  S
C930        O936   1.280       .  A
C931        C969   1.480       .  S
O933       Ni935   1.881       .  S
O933       Ni940   1.875       .  S
O934      Ni1287   1.979       .  S
Ni935      O1286   1.979   1_545  S
Ni935      O1115   1.921       .  S
Ni935      O1271   1.927   1_545  S
O936       Ni941   1.970       .  S
C938        C950   1.451       .  S
C938        O939   1.273       .  A
O939      Ni1111   1.921   1_556  S
Ni940      O1273   1.907   1_545  S
Ni940      O1274   1.914   1_545  S
O943       Ni949   1.916       .  S
O943        C964   1.266       .  A
O944       Ni967   1.884       .  S
O944        C953   1.260       .  A
O945        H968   0.966       .  S
O945       Ni949   1.871       .  S
O945       Ni961   1.930       .  S
C946        O963   1.277       .  A
O947       Ni966   1.904       .  S
O947       C1305   1.263   1_545  A
O948       Ni966   1.881       .  S
Ni949       O952   1.911       .  S
Ni949       O954   1.888       .  S
C950        O960   1.267       .  A
O951       Ni967   1.940       .  S
O951        C957   1.274       .  A
C953       C1348   1.445       .  S
C953       O1299   1.263       .  A
O954        C956   1.262       .  A
O955       Ni966   1.901       .  S
C957        C982   1.495       .  S
H958        O959   0.966       .  S
O959      Ni1319   1.923   1_545  S
O959       Ni966   1.868       .  S
O960       Ni961   1.928       .  S
Ni961       O965   1.884       .  S
Ni961      O1315   1.939       .  S
O962       Ni967   1.919       .  S
O963      Ni1313   1.939       .  S
C964        O965   1.261       .  A
Ni967      O1311   1.923       .  S
C969        C970   1.414       .  A
C969        C974   1.393       .  A
C970        C971   1.429       .  A
C971        C972   1.415       .  A
C972        C973   1.416       .  A
C972        H976   1.080       .  S
C973        C974   1.395       .  A
C973       C1019   1.474       .  S
C974        H977   1.085       .  S
C978        C979   1.406       .  A
C978        C983   1.433       .  A
C978       C1045   1.501       .  S
C979        C980   1.396       .  A
C979        H984   1.082       .  S
C981        H985   1.083   1_455  S
C982        C983   1.428       .  A
C983        H986   1.082       .  S
C987       C1340   1.410       .  A
C987        C992   1.408   1_565  A
C987       C1282   1.507       .  S
C988       C1339   1.410       .  A
C988        C989   1.427       .  A
C988        H993   1.079       .  S
C989       C1342   1.411       .  A
C990       C1341   1.411   1_545  A
C990        C991   1.399       .  A
C990        H994   1.078       .  S
C991        C992   1.419       .  A
C991       C1026   1.487       .  S
C992        H995   1.084       .  S
C996       C1349   1.392   1_545  A
C996       C1001   1.384       .  A
C996       C1305   1.445   1_545  S
C997       C1348   1.392       .  A
C997        C998   1.409       .  A
C997       H1002   1.080       .  S
C998       C1351   1.421       .  A
C999       C1350   1.421   1_545  A
C999       C1000   1.400       .  A
C999       H1003   1.078       .  S
C1000      C1001   1.378       .  A
C1000      C1052   1.452       .  S
C1001      H1004   1.086       .  S
O1005     Ni1011   1.911       .  S
O1005      C1026   1.268       .  A
O1006     Ni1029   1.942       .  S
O1006      C1015   1.278       .  A
O1007      H1030   0.966       .  S
O1007     Ni1011   1.933       .  S
O1007     Ni1029   1.922       .  S
O1007     Ni1023   1.928       .  S
C1008      O1025   1.282       .  A
C1008      O1017   1.268       .  A
O1009     Ni1028   1.901       .  S
O1009      C1015   1.262       .  A
O1010      C1012   1.267       .  A
Ni1011     O1014   1.912       .  S
Ni1011     O1016   1.915       .  S
C1012      C1044   1.490       .  S
C1012      O1022   1.282       .  A
O1013     Ni1029   1.920       .  S
O1013      C1019   1.272       .  A
O1014      C1019   1.264       .  A
O1016      C1018   1.273       .  A
O1017     Ni1028   1.890       .  S
C1018      C1038   1.493       .  S
C1018      O1024   1.288       .  A
H1020      O1021   0.966       .  S
O1021     Ni1029   1.907       .  S
O1021     Ni1023   1.921       .  S
O1021     Ni1028   1.928       .  S
Ni1023     O1027   1.938       .  S
Ni1023     O1025   1.944       .  S
O1024     Ni1029   1.970       .  S
C1026      O1027   1.282       .  A
O1031     Ni1037   1.931       .  S
O1031      C1052   1.272       .  A
O1032     Ni1055   1.897       .  S
O1032      C1041   1.265       .  A
O1033      H1056   0.966       .  S
O1033     Ni1037   1.898       .  S
O1033     Ni1055   1.900       .  S
O1033     Ni1049   1.927       .  S
C1034      O1051   1.275       .  A
C1034      O1043   1.284       .  A
O1035     Ni1054   1.920       .  S
O1035      C1041   1.270       .  A
O1036     Ni1054   1.904       .  S
O1036      C1038   1.264       .  A
Ni1037     O1040   1.939       .  S
Ni1037     O1042   1.905       .  S
C1038      O1048   1.280       .  A
O1039     Ni1055   1.935       .  S
O1039      C1045   1.275       .  A
O1040      C1045   1.286       .  A
O1042      C1044   1.264       .  A
O1043     Ni1054   1.924       .  S
C1044      O1050   1.279       .  A
H1046      O1047   0.966       .  S
O1047     Ni1055   1.922       .  S
O1047     Ni1049   1.895       .  S
O1047     Ni1054   1.891       .  S
O1048     Ni1049   1.964       .  S
Ni1049     O1053   1.886       .  S
Ni1049     O1051   1.934       .  S
O1050     Ni1055   1.958       .  S
C1052      O1053   1.264       .  A
C1057      C1058   1.402       .  A
C1057      C1238   1.423       .  A
C1057      C1272   1.479       .  S
C1058      C1059   1.394       .  A
C1058      H1063   1.084       .  S
C1059      C1236   1.412       .  A
C1059      C1360   1.480       .  S
C1060      C1235   1.412       .  A
C1060      C1061   1.407       .  A
C1060      H1064   1.078       .  S
C1061      C1062   1.427       .  A
C1062      C1233   1.423       .  A
C1066      C1067   1.400       .  A
C1066      C1071   1.424       .  A
C1066      C1210   1.491       .  S
C1067      C1068   1.394       .  A
C1067      H1072   1.082       .  S
C1068      C1069   1.380       .  A
C1069      C1070   1.401       .  A
C1070      C1071   1.425       .  A
C1070      C1122   1.489       .  S
C1071      H1074   1.083       .  S
C1075      C1076   1.414       .  A
C1075      C1080   1.411       .  A
C1075      C1100   1.507       .  S
C1076      C1077   1.427       .  A
C1077      C1078   1.409       .  A
C1077      C1165   1.519       .  S
C1078      C1079   1.393       .  A
C1078      H1082   1.078       .  S
C1079      C1080   1.418       .  A
C1079      C1191   1.484       .  S
C1080      H1083   1.084       .  S
C1084      C1085   1.394       .  A
C1084      C1089   1.385       .  A
C1084      C1140   1.450       .  S
C1085      C1086   1.409       .  A
C1086      C1087   1.420       .  A
C1086      C1174   1.496       .  S
C1087      C1088   1.400       .  A
C1087      H1091   1.080       .  S
C1088      C1089   1.383       .  A
C1088      C1217   1.457       .  S
C1089      H1092   1.086       .  S
O1093     Ni1275   1.909       .  S
O1094     Ni1117   1.918       .  S
O1095      H1118   0.966       .  S
C1096      C1233   1.479       .  S
C1096      O1289   1.291       .  A
C1096      O1105   1.279       .  A
O1097      C1103   1.267       .  A
O1098      C1100   1.266       .  A
Ni1099     O1269   1.909       .  S
Ni1099     O1102   1.924   1_556  S
Ni1099     O1104   1.921   1_556  S
C1100      O1110   1.282       .  A
O1101     Ni1117   1.951       .  S
O1101      C1107   1.288       .  A
O1102      C1107   1.279       .  A
C1103      C1132   1.448       .  S
O1104      C1106   1.268       .  A
O1105     Ni1116   1.916       .  S
C1106      O1112   1.280       .  A
C1107      C1145   1.480       .  S
O1109     Ni1111   1.881       .  S
O1109     Ni1116   1.875       .  S
Ni1111     O1289   1.957       .  S
O1112     Ni1117   1.970       .  S
O1113     Ni1287   1.957       .  S
O1113      C1272   1.291       .  A
C1114      C1126   1.451       .  S
C1114      O1115   1.273       .  A
O1119     Ni1125   1.916       .  S
O1119      C1140   1.266       .  A
O1120     Ni1143   1.884       .  S
O1120      C1129   1.260       .  A
O1121      H1144   0.966       .  S
O1121     Ni1125   1.871       .  S
O1121     Ni1137   1.930   1_565  S
C1122      O1139   1.277       .  A
O1123     Ni1142   1.904       .  S
O1124     Ni1142   1.881       .  S
Ni1125     O1128   1.911       .  S
Ni1125     O1130   1.888       .  S
C1126      O1136   1.267       .  A
O1127     Ni1143   1.939       .  S
O1127      C1133   1.274       .  A
O1130      C1132   1.262       .  A
O1131     Ni1142   1.901       .  S
C1133      C1158   1.495       .  S
H1134      O1135   0.966       .  S
O1135     Ni1142   1.868       .  S
O1136     Ni1137   1.928       .  S
Ni1137     O1141   1.884   1_545  S
O1138     Ni1143   1.919       .  S
C1140      O1141   1.261       .  A
C1145      C1146   1.414       .  A
C1145      C1150   1.393       .  A
C1146      C1147   1.429       .  A
C1147      C1148   1.415       .  A
C1148      C1149   1.416       .  A
C1148      H1152   1.080       .  S
C1149      C1150   1.395       .  A
C1149      C1195   1.474       .  S
C1150      H1153   1.085       .  S
C1154      C1155   1.406       .  A
C1154      C1159   1.433       .  A
C1154      C1221   1.501       .  S
C1155      C1156   1.396       .  A
C1155      H1160   1.082       .  S
C1157      H1161   1.083   1_455  S
C1158      C1159   1.428       .  A
C1159      H1162   1.082       .  S
C1163      C1168   1.408       .  A
C1164      C1165   1.427       .  A
C1164      H1169   1.079       .  S
C1166      C1167   1.399       .  A
C1166      H1170   1.078       .  S
C1167      C1168   1.419       .  A
C1167      C1202   1.487       .  S
C1168      H1171   1.084       .  S
C1172      C1177   1.384       .  A
C1173      C1174   1.409       .  A
C1173      H1178   1.080       .  S
C1175      C1176   1.400       .  A
C1175      H1179   1.078       .  S
C1176      C1177   1.378       .  A
C1176      C1228   1.452       .  S
C1177      H1180   1.086       .  S
O1181     Ni1187   1.911       .  S
O1181      C1202   1.268       .  A
O1182     Ni1205   1.942       .  S
O1182      C1191   1.278       .  A
O1183      H1206   0.966       .  S
O1183     Ni1187   1.933       .  S
O1183     Ni1205   1.922       .  S
O1183     Ni1199   1.928       .  S
C1184      C1235   1.480       .  S
C1184      O1201   1.282       .  A
C1184      O1193   1.268       .  A
O1185     Ni1204   1.901       .  S
O1185      C1191   1.262       .  A
O1186     Ni1380   1.911       .  S
O1186      C1188   1.267       .  A
Ni1187     O1190   1.912       .  S
Ni1187     O1192   1.915       .  S
C1188      C1220   1.490       .  S
C1188      O1198   1.282       .  A
O1189     Ni1205   1.920       .  S
O1189      C1195   1.272       .  A
O1190      C1195   1.264       .  A
O1192      C1194   1.273       .  A
O1193     Ni1204   1.890       .  S
C1194      C1214   1.493       .  S
C1194      O1200   1.287       .  A
H1196      O1197   0.966       .  S
O1197     Ni1205   1.907       .  S
O1197     Ni1199   1.921       .  S
O1197     Ni1204   1.928       .  S
O1198     Ni1375   1.957       .  S
Ni1199     O1374   1.957   1_554  S
Ni1199     O1203   1.938       .  S
Ni1199     O1201   1.944       .  S
O1200     Ni1205   1.969       .  S
C1202      O1203   1.282       .  A
Ni1204     O1362   1.911   1_554  S
O1207     Ni1213   1.931       .  S
O1207      C1228   1.272       .  A
O1208     Ni1231   1.896       .  S
O1208      C1217   1.265       .  A
O1209      H1232   0.966       .  S
O1209     Ni1213   1.898       .  S
O1209     Ni1231   1.900       .  S
O1209     Ni1225   1.927       .  S
C1210      O1227   1.275       .  A
C1210      O1219   1.284       .  A
O1211     Ni1230   1.920       .  S
O1211      C1217   1.270       .  A
O1212     Ni1230   1.904       .  S
O1212      C1214   1.264       .  A
Ni1213     O1216   1.939       .  S
Ni1213     O1218   1.905       .  S
C1214      O1224   1.280       .  A
O1215     Ni1231   1.935       .  S
O1215      C1221   1.275       .  A
O1216      C1221   1.286       .  A
O1218      C1220   1.264       .  A
O1219     Ni1230   1.924       .  S
C1220      O1226   1.279       .  A
H1222      O1223   0.966       .  S
O1223     Ni1231   1.922       .  S
O1223     Ni1225   1.895       .  S
O1223     Ni1230   1.891       .  S
O1224     Ni1225   1.964       .  S
Ni1225     O1229   1.886       .  S
Ni1225     O1227   1.934       .  S
O1226     Ni1231   1.958       .  S
C1228      O1229   1.264       .  A
C1233      C1234   1.402       .  A
C1234      C1235   1.394       .  A
C1234      H1239   1.084       .  S
C1236      C1237   1.407       .  A
C1236      H1240   1.078       .  S
C1237      C1238   1.427       .  A
C1242      C1243   1.400       .  A
C1242      C1247   1.424       .  A
C1242      C1386   1.491       .  S
C1243      C1244   1.394       .  A
C1243      H1248   1.082       .  S
C1244      C1245   1.380       .  A
C1245      C1246   1.401       .  A
C1246      C1247   1.425       .  A
C1246      C1298   1.489       .  S
C1247      H1250   1.083       .  S
C1251      C1252   1.414       .  A
C1251      C1256   1.411       .  A
C1251      C1276   1.507       .  S
C1252      C1253   1.427       .  A
C1253      C1254   1.409       .  A
C1253      C1341   1.519       .  S
C1254      C1255   1.393       .  A
C1254      H1258   1.078       .  S
C1255      C1256   1.418       .  A
C1255      C1367   1.484       .  S
C1256      H1259   1.084       .  S
C1260      C1261   1.394       .  A
C1260      C1265   1.385       .  A
C1260      C1316   1.450       .  S
C1261      C1262   1.409       .  A
C1262      C1263   1.420       .  A
C1262      C1350   1.496       .  S
C1263      C1264   1.400       .  A
C1263      H1267   1.080       .  S
C1264      C1265   1.383       .  A
C1264      C1393   1.457       .  S
C1265      H1268   1.086       .  S
O1270     Ni1293   1.918       .  S
O1271      H1294   0.966       .  S
C1272      O1281   1.279       .  A
O1273      C1279   1.267       .  A
O1274      C1276   1.266       .  A
Ni1275     O1278   1.924       .  S
Ni1275     O1280   1.921       .  S
C1276      O1286   1.282       .  A
O1277     Ni1293   1.951       .  S
O1277      C1283   1.288       .  A
O1278      C1283   1.279       .  A
C1279      C1308   1.448       .  S
O1280      C1282   1.268       .  A
O1281     Ni1292   1.916       .  S
C1282      O1288   1.280       .  A
C1283      C1321   1.480       .  S
O1285     Ni1287   1.881       .  S
O1285     Ni1292   1.875       .  S
O1288     Ni1293   1.970       .  S
C1290      C1302   1.451       .  S
C1290      O1291   1.273       .  A
O1295     Ni1301   1.916       .  S
O1295      C1316   1.266       .  A
O1296     Ni1319   1.884       .  S
O1296      C1305   1.260       .  A
O1297      H1320   0.966       .  S
O1297     Ni1301   1.871       .  S
O1297     Ni1313   1.930   1_565  S
C1298      O1315   1.277       .  A
O1299     Ni1318   1.904       .  S
O1300     Ni1318   1.881       .  S
Ni1301     O1304   1.911       .  S
Ni1301     O1306   1.888       .  S
C1302      O1312   1.267       .  A
O1303     Ni1319   1.939       .  S
O1303      C1309   1.274       .  A
O1306      C1308   1.262       .  A
O1307     Ni1318   1.901       .  S
C1309      C1334   1.495       .  S
H1310      O1311   0.966       .  S
O1311     Ni1318   1.868       .  S
O1312     Ni1313   1.928       .  S
Ni1313     O1317   1.884   1_545  S
O1314     Ni1319   1.919       .  S
C1316      O1317   1.261       .  A
C1321      C1322   1.414       .  A
C1321      C1326   1.393       .  A
C1322      C1323   1.429       .  A
C1323      C1324   1.415       .  A
C1324      C1325   1.416       .  A
C1324      H1328   1.080       .  S
C1325      C1326   1.395       .  A
C1325      C1371   1.474       .  S
C1326      H1329   1.085       .  S
C1330      C1331   1.406       .  A
C1330      C1335   1.433       .  A
C1330      C1397   1.501       .  S
C1331      C1332   1.396       .  A
C1331      H1336   1.082       .  S
C1333      H1337   1.083   1_455  S
C1334      C1335   1.428       .  A
C1335      H1338   1.082       .  S
C1339      C1344   1.408       .  A
C1340      C1341   1.427       .  A
C1340      H1345   1.079       .  S
C1342      C1343   1.399       .  A
C1342      H1346   1.078       .  S
C1343      C1344   1.419       .  A
C1343      C1378   1.487       .  S
C1344      H1347   1.084       .  S
C1348      C1353   1.384       .  A
C1349      C1350   1.409       .  A
C1349      H1354   1.080       .  S
C1351      C1352   1.400       .  A
C1351      H1355   1.078       .  S
C1352      C1353   1.378       .  A
C1352      C1404   1.452       .  S
C1353      H1356   1.086       .  S
O1357     Ni1363   1.911       .  S
O1357      C1378   1.268       .  A
O1358     Ni1381   1.942       .  S
O1358      C1367   1.278       .  A
O1359      H1382   0.966       .  S
O1359     Ni1363   1.933       .  S
O1359     Ni1381   1.922       .  S
O1359     Ni1375   1.928       .  S
C1360      O1377   1.282       .  A
C1360      O1369   1.268       .  A
O1361     Ni1380   1.901       .  S
O1361      C1367   1.262       .  A
O1362      C1364   1.267       .  A
Ni1363     O1366   1.912       .  S
Ni1363     O1368   1.915       .  S
C1364      C1396   1.490       .  S
C1364      O1374   1.282       .  A
O1365     Ni1381   1.920       .  S
O1365      C1371   1.272       .  A
O1366      C1371   1.264       .  A
O1368      C1370   1.273       .  A
O1369     Ni1380   1.890       .  S
C1370      C1390   1.493       .  S
C1370      O1376   1.287       .  A
H1372      O1373   0.966       .  S
O1373     Ni1381   1.907       .  S
O1373     Ni1375   1.921       .  S
O1373     Ni1380   1.928       .  S
Ni1375     O1379   1.938       .  S
Ni1375     O1377   1.944       .  S
O1376     Ni1381   1.969       .  S
C1378      O1379   1.282       .  A
O1383     Ni1389   1.931       .  S
O1383      C1404   1.272       .  A
O1384     Ni1407   1.896       .  S
O1384      C1393   1.265       .  A
O1385      H1408   0.966       .  S
O1385     Ni1389   1.898       .  S
O1385     Ni1407   1.900       .  S
O1385     Ni1401   1.927       .  S
C1386      O1403   1.275       .  A
C1386      O1395   1.284       .  A
O1387     Ni1406   1.920       .  S
O1387      C1393   1.270       .  A
O1388     Ni1406   1.904       .  S
O1388      C1390   1.264       .  A
Ni1389     O1392   1.939       .  S
Ni1389     O1394   1.905       .  S
C1390      O1400   1.280       .  A
O1391     Ni1407   1.935       .  S
O1391      C1397   1.275       .  A
O1392      C1397   1.286       .  A
O1394      C1396   1.264       .  A
O1395     Ni1406   1.924       .  S
C1396      O1402   1.279       .  A
H1398      O1399   0.966       .  S
O1399     Ni1407   1.922       .  S
O1399     Ni1401   1.895       .  S
O1399     Ni1406   1.891       .  S
O1400     Ni1401   1.964       .  S
Ni1401     O1405   1.886       .  S
Ni1401     O1403   1.934       .  S
O1402     Ni1407   1.958       .  S
C1404      O1405   1.264       .  A
