geometry optimzed in LAMMPS
_audit_creation_date              2020-11-30 
_audit_creation_method            'lammps2cif' 
_symmetry_space_group_name_H-M    'P1' 
_symmetry_Int_Tables_number       1 
_symmetry_cell_setting            triclinic 
loop_ 
_symmetry_equiv_pos_as_xyz 
  x,y,z 
_cell_length_a                    49.69357906 
_cell_length_b                    49.05138484035485 
_cell_length_c                    49.80371944405333 
_cell_angle_alpha                 90.10617962914247 
_cell_angle_beta                  90.9414047893127 
_cell_angle_gamma                 89.27519914819626 
loop_ 
_atom_site_label 
_atom_site_type_symbol 
_atom_site_fract_x 
_atom_site_fract_y 
_atom_site_fract_z 
_atom_site_charge 
N1          N  0.61644066  0.15488956  0.27466423     0.00000
C2          C  0.63200322  0.14049070  0.25742883    -0.10800
C3          C  0.61786571  0.11879860  0.24712643    -0.06300
C4          C  0.59285403  0.11954261  0.25974439    -0.07000
C5          C  0.59267514  0.14201826  0.27709051    -0.10900
N6          N  0.32835731  0.11990265  0.27499167     0.00000
C7          C  0.31333149  0.10229253  0.26021499    -0.10800
C8          C  0.32851765  0.07903577  0.25461664    -0.06300
C9          C  0.35341677  0.08259291  0.26737974    -0.07000
C10         C  0.35275829  0.10810345  0.27953825    -0.10900
C11         C  0.50931387  0.17597470  0.35477358     0.31600
C12         C  0.47206517  0.19963956  0.38920619     0.31600
C13         C  0.51835829  0.17893363  0.38435263    -0.04600
C14         C  0.50052742  0.20583689  0.34857653    -0.05400
C15         C  0.48187105  0.16153328  0.35696933    -0.05200
C16         C  0.49904687  0.19000740  0.40164471    -0.04600
C17         C  0.48094418  0.21769964  0.36502331    -0.05400
C18         C  0.46298991  0.17421455  0.37376609    -0.05300
C19         C  0.51234095  0.19872580  0.42437230    -0.30600
N20         N  0.53894177  0.19434034  0.42145872     0.15900
C21         C  0.54310847  0.18351337  0.39678534    -0.30600
H22         H  0.56264430  0.18149212  0.38764196     0.17800
C23         C  0.47175685  0.24082638  0.35106971    -0.29600
N24         N  0.48683877  0.24456087  0.32849063     0.14600
C25         C  0.50484584  0.22356392  0.32775174    -0.29600
C26         C  0.43788232  0.16686583  0.36445355    -0.29900
N27         N  0.44071643  0.14841130  0.34459850     0.15100
H28         H  0.41885692  0.17583720  0.37038528     0.17700
C29         C  0.46728820  0.14503016  0.33963930    -0.29900
H30         H  0.47514150  0.13321649  0.32311340     0.17700
H31         H  0.51997793  0.22115540  0.31258641     0.17700
H32         H  0.50372436  0.21040984  0.44063116     0.17800
H33         H  0.45437256  0.25290475  0.35650948     0.17700
N34         N  0.39178461  0.81204783  0.26572170     0.00000
C35         C  0.37068852  0.82829245  0.25739192    -0.10800
C36         C  0.37503440  0.85497785  0.26507107    -0.06300
C37         C  0.39852279  0.85507352  0.28163912    -0.07000
C38         C  0.40827132  0.82779017  0.28167414    -0.10900
N39         N  0.66026648  0.86162307  0.24785747     0.00000
C40         C  0.67261269  0.87753204  0.22933739    -0.10800
C41         C  0.65852319  0.90245379  0.22576089    -0.06300
C42         C  0.63668106  0.90110347  0.24390665    -0.07000
C43         C  0.63843379  0.87552148  0.25684498    -0.10900
C44         C  0.71674435  0.03333356  0.12038972     0.31600
C45         C  0.69573200  0.99108313  0.15098414     0.31600
C46         C  0.71118925  0.00689505  0.10557001    -0.04600
C47         C  0.73467715  0.02241124  0.14416491    -0.05400
C48         C  0.68949647  0.03870338  0.13341576    -0.05200
C49         C  0.70188630  0.98459400  0.12081167    -0.04600
C50         C  0.72311074  0.00241687  0.16010944    -0.05400
C51         C  0.67864271  0.01732951  0.14830884    -0.05300
C52         C  0.71227490  0.96183910  0.10749830    -0.30600
N53         N  0.72415213  0.97000211  0.08454070     0.15900
C54         C  0.72389743  0.99724545  0.08351781    -0.30600
H55         H  0.73461741  0.00917797  0.06896514     0.17800
C56         C  0.74263368  0.99241445  0.17710278    -0.29600
N57         N  0.76680520  0.00347553  0.17133515     0.14600
C58         C  0.76217551  0.02002105  0.14968573    -0.29600
C59         C  0.65865464  0.02855867  0.16357160    -0.29900
N60         N  0.65758921  0.05580979  0.15916735     0.15100
H61         H  0.64855464  0.01849423  0.17982065     0.17700
C62         C  0.67641751  0.06224771  0.14096330    -0.29900
H63         H  0.68284988  0.08277753  0.13669961     0.17700
H64         H  0.77759357  0.02808648  0.13715438     0.17700
H65         H  0.71276589  0.94105747  0.11474211     0.17800
H66         H  0.73878078  0.97789970  0.19269248     0.17700
C67         C  0.54524639  0.76309323  0.37904865     0.31600
C68         C  0.50055517  0.78313346  0.34954214     0.31600
C69         C  0.55056762  0.78701426  0.35922348    -0.04600
C70         C  0.53135113  0.74246380  0.35918657    -0.05400
C71         C  0.52119274  0.77432487  0.39460668    -0.05200
C72         C  0.52798738  0.79797588  0.34562689    -0.04600
C73         C  0.50878252  0.75259797  0.34483723    -0.05400
C74         C  0.49889070  0.78485230  0.38065869    -0.05300
C75         C  0.53736543  0.81856881  0.32931731    -0.30600
N76         N  0.56488409  0.81799342  0.32879962     0.15900
C77         C  0.57275377  0.79795100  0.34664344    -0.30600
H78         H  0.59309922  0.79043063  0.34961286     0.17800
C79         C  0.50089724  0.73226291  0.32694338    -0.29600
N80         N  0.51814465  0.71033889  0.32870571     0.14600
C81         C  0.53719030  0.71690946  0.34781701    -0.29600
C82         C  0.48093428  0.79282117  0.40057644    -0.29900
N83         N  0.49079170  0.78483727  0.42495023     0.15100
H84         H  0.46155035  0.80266946  0.39796294     0.17700
C85         C  0.51571810  0.77470303  0.42147654    -0.29900
H86         H  0.52765251  0.76513650  0.43729826     0.17700
H87         H  0.55467942  0.70440481  0.35267350     0.17700
H88         H  0.52445264  0.83263460  0.31843697     0.17800
H89         H  0.48396311  0.73375828  0.31308961     0.17700
C90         C  0.28518134  0.99884564  0.17955595     0.31600
C91         C  0.26836877  0.95885132  0.14457840     0.31600
C92         C  0.29795511  0.97046023  0.18326332    -0.04600
C93         C  0.25459098  0.99332299  0.17934862    -0.05400
C94         C  0.28912855  0.00510163  0.14980458    -0.05200
C95         C  0.28939320  0.94994054  0.16610634    -0.04600
C96         C  0.24588515  0.97204388  0.16267904    -0.05400
C97         C  0.28108127  0.98462081  0.13239522    -0.05300
C98         C  0.30142492  0.92598132  0.17556693    -0.30600
N99         N  0.31770224  0.93211260  0.19700148     0.15900
C100        C  0.31559437  0.95915759  0.20183221    -0.30600
H101        H  0.32529965  0.96958909  0.21846567     0.17800
C102        C  0.21952788  0.96766878  0.17064338    -0.29600
N103        N  0.21077241  0.98784283  0.18743642     0.14600
C104        C  0.23239049  0.00404716  0.19219161    -0.29600
C105        C  0.27944452  0.99584052  0.10710025    -0.29900
N106        N  0.28510770  0.02269545  0.10851846     0.15100
H107        H  0.27263844  0.98557955  0.08902958     0.17700
C108        C  0.29020423  0.02886420  0.13471311    -0.29900
H109        H  0.29282792  0.04929602  0.14247700     0.17700
H110        H  0.23250596  0.02241175  0.20411485     0.17700
H111        H  0.29816525  0.90563392  0.16783831     0.17800
H112        H  0.20820761  0.94962715  0.16723215     0.17700
N113        N  0.13732065  0.27789101  0.68592038     0.00000
C114        C  0.11256132  0.27402178  0.67444951    -0.10800
C115        C  0.11260448  0.28648603  0.64882986    -0.06300
C116        C  0.13688181  0.29961487  0.64634796    -0.07000
C117        C  0.15165735  0.29348443  0.66904533    -0.10900
N118        N  0.16590806  0.27545333  0.38367220     0.00000
C119        C  0.15015883  0.25706429  0.36990890    -0.10800
C120        C  0.12642858  0.25242660  0.38391674    -0.06300
C121        C  0.12844696  0.26990014  0.40687739    -0.07000
C122        C  0.15332638  0.28390923  0.40653222    -0.10900
C123        C  0.23264668  0.40093970  0.52300190     0.31600
C124        C  0.20605335  0.36470850  0.48673335     0.31600
C125        C  0.21873026  0.41337607  0.49767111    -0.04600
C126        C  0.25021685  0.37741189  0.51006650    -0.05400
C127        C  0.20979333  0.38350708  0.53405752    -0.05200
C128        C  0.20567867  0.39518147  0.47914413    -0.04600
C129        C  0.23689467  0.36092441  0.49067159    -0.05400
C130        C  0.19656756  0.36561585  0.51610295    -0.05300
C131        C  0.21049009  0.40555224  0.45391150    -0.30600
N132        N  0.22456441  0.42878789  0.45625937     0.15900
C133        C  0.22934641  0.43381132  0.48248921    -0.30600
H134        H  0.24415521  0.44823168  0.48968627     0.17800
C135        C  0.25552096  0.34301912  0.48045302    -0.29600
N136        N  0.27833517  0.34419588  0.49540853     0.14600
C137        C  0.27504194  0.36414424  0.51430186    -0.29600
C138        C  0.18064510  0.34919182  0.53135523    -0.29900
N139        N  0.18389559  0.35618122  0.55762999     0.15100
H140        H  0.16871574  0.33232500  0.52406368     0.17700
C141        C  0.20191569  0.37668120  0.55951199    -0.29900
H142        H  0.20979509  0.38499287  0.57815321     0.17700
H143        H  0.28918537  0.36777790  0.53059087     0.17700
H144        H  0.20832144  0.39428238  0.43529878     0.17800
H145        H  0.25233080  0.32866982  0.46423413     0.17700
N146        N  0.86772701  0.25620718  0.37649745     0.00000
C147        C  0.88277266  0.24101435  0.35909198    -0.10800
C148        C  0.90535209  0.22978159  0.37226209    -0.06300
C149        C  0.90322484  0.23986533  0.39890576    -0.07000
C150        C  0.87958276  0.25607292  0.40112338    -0.10900
N151        N  0.89716421  0.22804964  0.68900539     0.00000
C152        C  0.88266361  0.24392762  0.67145644    -0.10800
C153        C  0.89447767  0.24490871  0.64630369    -0.06300
C154        C  0.91739985  0.22814155  0.64895071    -0.07000
C155        C  0.91873369  0.21803465  0.67545584    -0.10900
C156        C  0.04888755  0.11549082  0.73490046     0.31600
C157        C  0.00244378  0.14492223  0.72182782     0.31600
C158        C  0.02311869  0.09918436  0.72712280    -0.04600
C159        C  0.03829584  0.13528725  0.75666132    -0.05400
C160        C  0.05071378  0.13524734  0.70983796    -0.05200
C161        C  0.99999743  0.11436554  0.72128663    -0.04600
C162        C  0.01519172  0.15069272  0.74997143    -0.05400
C163        C  0.02625099  0.14946770  0.70377602    -0.05300
C164        C  0.97838803  0.09737314  0.72086691    -0.30600
N165        N  0.98745110  0.07184021  0.72594462     0.15900
C166        C  0.01463833  0.07246373  0.72902396    -0.30600
H167        H  0.02668128  0.05507855  0.73540980     0.17800
C168        C  0.01255927  0.17009306  0.77008535    -0.29600
N169        N  0.03189338  0.16585148  0.78920824     0.14600
C170        C  0.04797593  0.14489745  0.78109330    -0.29600
C171        C  0.03174643  0.17395112  0.69246351    -0.29900
N172        N  0.05833516  0.17675746  0.69108487     0.15100
H173        H  0.01747057  0.19073615  0.69036643     0.17700
C174        C  0.07006531  0.15368528  0.70108497    -0.29900
H175        H  0.09132195  0.15210525  0.70325823     0.17700
H176        H  0.06594108  0.13786292  0.79168121     0.17700
H177        H  0.95740160  0.10361566  0.72051348     0.17800
H178        H  0.99867844  0.18715871  0.77051509     0.17700
C179        C  0.83159187  0.32909033  0.48684509     0.31600
C180        C  0.81125895  0.36718816  0.52357455     0.31600
C181        C  0.83331507  0.35940591  0.47889948    -0.04600
C182        C  0.80068132  0.32729808  0.49315913    -0.05400
C183        C  0.84440971  0.32867136  0.51557291    -0.05200
C184        C  0.82354497  0.37818094  0.49748178    -0.04600
C185        C  0.79122948  0.34545530  0.51270025    -0.05400
C186        C  0.83395399  0.34758718  0.53441787    -0.05300
C187        C  0.81749661  0.40166290  0.48340180    -0.30600
N188        N  0.82184949  0.39823625  0.45684707     0.15900
C189        C  0.83190729  0.37235633  0.45407336    -0.30600
H190        H  0.83668762  0.36255543  0.43532432     0.17800
C191        C  0.76557232  0.33729600  0.51898168    -0.29600
N192        N  0.75682457  0.31753854  0.50154233     0.14600
C193        C  0.77832677  0.31208401  0.48525832    -0.29600
C194        C  0.83882958  0.33563891  0.55952784    -0.29900
N195        N  0.85357163  0.31225094  0.55681534     0.15100
H196        H  0.83092140  0.34279420  0.57842615     0.17700
C197        C  0.85630231  0.30746640  0.53015406    -0.29900
H198        H  0.86466678  0.28886047  0.52184653     0.17700
H199        H  0.77804068  0.29865825  0.46813739     0.17700
H200        H  0.80722842  0.41912364  0.49164455     0.17800
H201        H  0.75470470  0.34507409  0.53599227     0.17700
C202        C  0.98561263  0.15313962  0.31973468     0.31600
C203        C  0.02048002  0.11287045  0.29834120     0.31600
C204        C  0.97586693  0.12366320  0.31976546    -0.04600
C205        C  0.99305727  0.15628773  0.28926576    -0.05400
C206        C  0.01359538  0.15035338  0.33329322    -0.05200
C207        C  0.99320910  0.10420238  0.30948061    -0.04600
C208        C  0.01106085  0.13645869  0.27867103    -0.05400
C209        C  0.03209203  0.13102823  0.32249444    -0.05300
C210        C  0.97996432  0.07998729  0.30998592    -0.30600
N211        N  0.95546530  0.08317368  0.32149670     0.15900
C212        C  0.95252442  0.11036327  0.32654171    -0.30600
H213        H  0.93498585  0.12043724  0.33428424     0.17800
C214        C  0.01605757  0.14465082  0.25233049    -0.29600
N215        N  0.00077734  0.16718083  0.24600353     0.14600
C216        C  0.98631050  0.17385365  0.26809677    -0.29600
C217        C  0.05744042  0.14235530  0.32939681    -0.29900
N218        N  0.05438657  0.16506351  0.34549770     0.15100
H219        H  0.07654735  0.13558183  0.32149637     0.17700
C220        C  0.02770862  0.16991979  0.34729499    -0.29900
H221        H  0.01911654  0.18841606  0.35564161     0.17700
H222        H  0.97152348  0.19018327  0.26840043     0.17700
H223        H  0.98741081  0.06156310  0.30071584     0.17800
H224        H  0.02980829  0.13477861  0.23865885     0.17700
N225        N  0.23875440  0.64992883  0.15519005     0.00000
C226        C  0.25769485  0.63348643  0.16669214    -0.10800
C227        C  0.26100882  0.61006150  0.15140143    -0.06300
C228        C  0.24209615  0.61174517  0.13034501    -0.07000
C229        C  0.22881208  0.63674972  0.13331443    -0.10900
N230        N  0.25651346  0.33932178  0.14807676     0.00000
C231        C  0.27600399  0.35459337  0.16077624    -0.10800
C232        C  0.28414885  0.37670056  0.14473739    -0.06300
C233        C  0.26707840  0.37426881  0.12171477    -0.07000
C234        C  0.25034995  0.35116995  0.12394642    -0.10900
C235        C  0.40703558  0.50247712  0.18960424     0.31600
C236        C  0.36988773  0.46203330  0.17389597     0.31600
C237        C  0.41800774  0.47683078  0.17612722    -0.04600
C238        C  0.38825131  0.49113597  0.21127713    -0.05400
C239        C  0.38584096  0.51124773  0.16841804    -0.05200
C240        C  0.40034680  0.45573967  0.16966618    -0.04600
C241        C  0.37091256  0.47005968  0.20409412    -0.05400
C242        C  0.36702187  0.49070338  0.16021329    -0.05300
C243        C  0.41703581  0.43299213  0.16721274    -0.30600
N244        N  0.44356594  0.44057667  0.16881840     0.15900
C245        C  0.44355981  0.46785498  0.17267886    -0.30600
H246        H  0.46062770  0.48093936  0.17404410     0.17800
C247        C  0.35780399  0.46294991  0.22735900    -0.29600
N248        N  0.36410203  0.48099421  0.24733021     0.14600
C249        C  0.38207703  0.49868167  0.23706677    -0.29600
C250        C  0.34406521  0.50456266  0.15196422    -0.29900
N251        N  0.34772766  0.53162020  0.15529361     0.15100
H252        H  0.32485845  0.49553051  0.14706106     0.17700
C253        C  0.37254872  0.53587859  0.16578525    -0.29900
H254        H  0.37912330  0.55508323  0.17421622     0.17700
H255        H  0.38981926  0.51644241  0.24736085     0.17700
H256        H  0.41007575  0.41219277  0.16695301     0.17800
H257        H  0.34466036  0.44576757  0.22929355     0.17700
N258        N  0.28034224  0.34994637  0.86856474     0.00000
C259        C  0.29347439  0.36565192  0.85037081    -0.10800
C260        C  0.29821033  0.39170371  0.86119886    -0.06300
C261        C  0.28681566  0.39099278  0.88689748    -0.07000
C262        C  0.27557973  0.36534282  0.89067839    -0.10900
N263        N  0.26331589  0.65155344  0.87144431     0.00000
C264        C  0.24628864  0.66738668  0.88633834    -0.10800
C265        C  0.23920358  0.65412684  0.91031061    -0.06300
C266        C  0.25469710  0.62933583  0.90887179    -0.07000
C267        C  0.26944887  0.62825183  0.88474571    -0.10900
C268        C  0.11381568  0.72295733  0.01926819     0.31600
C269        C  0.15529246  0.70086943  0.98749320     0.31600
C270        C  0.10723007  0.71669365  0.98985769    -0.04600
C271        C  0.13906403  0.74107647  0.01544862    -0.05400
C272        C  0.12679207  0.69582889  0.02850447    -0.05200
C273        C  0.12741951  0.70506749  0.97405605    -0.04600
C274        C  0.16041885  0.72931799  0.00069891    -0.05400
C275        C  0.14752374  0.68458514  0.01262135    -0.05300
C276        C  0.11420941  0.69195446  0.95329402    -0.30600
N277        N  0.08709809  0.69609421  0.95543454     0.15900
C278        C  0.08334342  0.71236420  0.97715068    -0.30600
H279        H  0.06448134  0.72026154  0.98430611     0.17800
C280        C  0.18110552  0.74798868  0.00120835    -0.29600
N281        N  0.17214905  0.77150344  0.01243096     0.14600
C282        C  0.14647604  0.76778855  0.02036234    -0.29600
C283        C  0.16253823  0.66802712  0.02941505    -0.29900
N284        N  0.15148370  0.66820012  0.05412270     0.15100
H285        H  0.18244114  0.66002421  0.02518333     0.17700
C286        C  0.13010397  0.68541967  0.05389593    -0.29900
H287        H  0.12053046  0.69324074  0.07176015     0.17700
H288        H  0.13381637  0.78421238  0.02737690     0.17700
H289        H  0.12419390  0.67947560  0.93863887     0.17800
H290        H  0.20105104  0.74522134  0.99322940     0.17700
C291        C  0.36313271  0.48086021  0.81292232     0.31600
C292        C  0.40496182  0.51566306  0.79957621     0.31600
C293        C  0.39132487  0.46879601  0.81462714    -0.04600
C294        C  0.36225481  0.49261759  0.78368085    -0.05400
C295        C  0.36483220  0.50761765  0.82908212    -0.05200
C296        C  0.41198417  0.48577222  0.80686937    -0.04600
C297        C  0.38341668  0.51015492  0.77660326    -0.05400
C298        C  0.38581222  0.52566053  0.82307886    -0.05300
C299        C  0.43058014  0.46837525  0.79534884    -0.30600
N300        N  0.42387829  0.44220149  0.79903366     0.15900
C301        C  0.39941323  0.44199502  0.81010331    -0.30600
H302        H  0.38730184  0.42394966  0.81215058     0.17800
C303        C  0.37799671  0.51789459  0.74997203    -0.29600
N304        N  0.35461193  0.50601658  0.74075915     0.14600
C305        C  0.34510828  0.49130678  0.76169866    -0.29600
C306        C  0.37560647  0.55139604  0.83163800    -0.29900
N307        N  0.35059726  0.54899365  0.84279682     0.15100
H308        H  0.38506936  0.57078110  0.82840881     0.17700
C309        C  0.34401251  0.52241549  0.84050419    -0.29900
H310        H  0.32428673  0.51453192  0.84478359     0.17700
H311        H  0.32654201  0.48042175  0.76116376     0.17700
H312        H  0.44747932  0.47432900  0.78341232     0.17800
H313        H  0.39008670  0.53174291  0.73860454     0.17700
C314        C  0.14376220  0.29269388  0.99298025     0.31600
C315        C  0.17410554  0.30708642  0.03821761     0.31600
C316        C  0.12813928  0.30088683  0.01788129    -0.04600
C317        C  0.16349244  0.27025552  0.00457744    -0.05400
C318        C  0.16270761  0.31673122  0.98934271    -0.05200
C319        C  0.14280619  0.30748465  0.04124727    -0.04600
C320        C  0.17907584  0.27774578  0.02716224    -0.05400
C321        C  0.17867150  0.32384643  0.01194504    -0.05300
C322        C  0.12541137  0.30105986  0.06222553    -0.30600
N323        N  0.10103328  0.29318346  0.05183571     0.15900
C324        C  0.10289987  0.29294326  0.02496899    -0.30600
H325        H  0.08790148  0.28426472  0.01159461     0.17800
C326        C  0.19708987  0.25638949  0.03196752    -0.29600
N327        N  0.19268031  0.23573480  0.01423761     0.14600
C328        C  0.17233411  0.24426884  0.99754242    -0.29600
C329        C  0.20195870  0.33509901  0.00145808    -0.29900
N330        N  0.19992608  0.33616679  0.97415564     0.15100
H331        H  0.21998861  0.34003884  0.01285480     0.17700
C332        C  0.17648011  0.32434942  0.96678070    -0.29900
H333        H  0.17106849  0.31904248  0.94629850     0.17700
H334        H  0.16512549  0.23228761  0.98109313     0.17700
H335        H  0.13097631  0.29984513  0.08329163     0.17800
H336        H  0.21288368  0.25612257  0.04689438     0.17700
N337        N  0.76843445  0.36382733  0.16105627     0.00000
C338        C  0.75010542  0.37864499  0.17538775    -0.10800
C339        C  0.74046393  0.39985446  0.15885772    -0.06300
C340        C  0.75396862  0.39772719  0.13462716    -0.07000
C341        C  0.77092522  0.37538517  0.13653953    -0.10900
N342        N  0.72684294  0.68114775  0.10511649     0.00000
C343        C  0.70534542  0.67280125  0.11947700    -0.10800
C344        C  0.70050606  0.64544107  0.11266738    -0.06300
C345        C  0.71970988  0.63799635  0.09403116    -0.07000
C346        C  0.73575743  0.66018558  0.08991645    -0.10900
N347        N  0.78926494  0.64963766  0.85846908     0.00000
C348        C  0.76523366  0.64166225  0.84701253    -0.10800
C349        C  0.74975386  0.62790424  0.86632925    -0.06300
C350        C  0.76604284  0.62764982  0.89001939    -0.07000
C351        C  0.78875087  0.64305275  0.88505224    -0.10900
N352        N  0.77404586  0.37764252  0.85717081     0.00000
C353        C  0.78976361  0.36168872  0.87379854    -0.10800
C354        C  0.79623116  0.37493803  0.89765379    -0.06300
C355        C  0.78241600  0.40066279  0.89426895    -0.07000
C356        C  0.76864056  0.40229171  0.86847440    -0.10900
C357        C  0.64306008  0.50416187  0.77733579     0.31600
C358        C  0.68829894  0.47342804  0.79888140     0.31600
C359        C  0.63828894  0.47624310  0.78928546    -0.04600
C360        C  0.66605405  0.49614458  0.75654726    -0.05400
C361        C  0.66080887  0.51740309  0.79930199    -0.05200
C362        C  0.65972997  0.46088917  0.80022909    -0.04600
C363        C  0.68864849  0.48042229  0.76702731    -0.05400
C364        C  0.68285800  0.50238044  0.80992690    -0.05300
C365        C  0.64820075  0.43713867  0.80982881    -0.30600
N366        N  0.62112459  0.43814983  0.80459206     0.15900
C367        C  0.61557678  0.46150280  0.79121322    -0.30600
H368        H  0.59600914  0.46747931  0.78318613     0.17800
C369        C  0.70508244  0.47567171  0.74441677    -0.29600
N370        N  0.69503495  0.48856953  0.72175413     0.14600
C371        C  0.67138046  0.50097493  0.72925981    -0.29600
C372        C  0.69817162  0.52044368  0.82470534    -0.29900
N373        N  0.68619162  0.54548009  0.82372386     0.15100
H374        H  0.71730839  0.51597875  0.83454311     0.17700
C375        C  0.66377051  0.54389053  0.80791766    -0.29900
H376        H  0.65057526  0.56086173  0.80273895     0.17700
H377        H  0.65897311  0.51328318  0.71585305     0.17700
H378        H  0.65871732  0.42082762  0.82032391     0.17800
H379        H  0.72285437  0.46286357  0.74413561     0.17700
C380        C  0.86562913  0.31982306  0.98724239     0.31600
C381        C  0.89725521  0.29914958  0.03042963     0.31600
C382        C  0.86451295  0.33597954  0.01408229    -0.04600
C383        C  0.85838765  0.29053809  0.99835255    -0.05400
C384        C  0.89677747  0.31715427  0.98329563    -0.05200
C385        C  0.88021312  0.32524126  0.03611512    -0.04600
C386        C  0.87514720  0.28047745  0.01950192    -0.05400
C387        C  0.91151092  0.30710532  0.00506173    -0.05300
C388        C  0.86568853  0.33159559  0.05875691    -0.30600
N389        N  0.84411600  0.34729154  0.05214335     0.15900
C390        C  0.84258786  0.34935801  0.02510403    -0.30600
H391        H  0.82525817  0.35732783  0.01409284     0.17800
C392        C  0.86368534  0.25764580  0.03007076    -0.29600
N393        N  0.84035559  0.25286299  0.01680866     0.14600
C394        C  0.83610031  0.27326179  0.99861214    -0.29600
C395        C  0.93760199  0.30440190  0.99807566    -0.29900
N396        N  0.94117041  0.31279713  0.97256308     0.15100
H397        H  0.95230782  0.29423998  0.01059536     0.17700
C398        C  0.91582906  0.32051738  0.96322202    -0.29900
H399        H  0.91055673  0.32718716  0.94327658     0.17700
H400        H  0.81747050  0.27569164  0.98739175     0.17700
H401        H  0.86895130  0.32291549  0.07852862     0.17800
H402        H  0.87159755  0.24545225  0.04656044     0.17700
C403        C  0.85976584  0.69580623  0.96925932     0.31600
C404        C  0.89760368  0.71284428  0.00820691     0.31600
C405        C  0.88871832  0.68718778  0.96526036    -0.04600
C406        C  0.86275742  0.72752389  0.97353687    -0.05400
C407        C  0.85557691  0.68591293  0.99764975    -0.05200
C408        C  0.90811545  0.69577318  0.98414628    -0.04600
C409        C  0.88121268  0.73553694  0.99385491    -0.05400
C410        C  0.87343507  0.69508600  0.01822498    -0.05300
C411        C  0.93192819  0.69634841  0.97002151    -0.30600
N412        N  0.92715213  0.68792875  0.94443526     0.15900
C413        C  0.90103769  0.68222565  0.94162430    -0.30600
H414        H  0.89082975  0.68010942  0.92252278     0.17800
C415        C  0.87688280  0.76287992  0.99894880    -0.29600
N416        N  0.85830936  0.77262177  0.98113509     0.14600
C417        C  0.85040319  0.75170150  0.96501399    -0.29600
C418        C  0.85706961  0.69582338  0.04098587    -0.29900
N419        N  0.83234380  0.68546318  0.03466198     0.15100
H420        H  0.86223657  0.70483891  0.06020014     0.17700
C421        C  0.83157494  0.67960372  0.00843813    -0.29900
H422        H  0.81363002  0.67361894  0.99738232     0.17700
H423        H  0.83636720  0.75438378  0.94849983     0.17700
H424        H  0.95043155  0.70582532  0.97657533     0.17800
H425        H  0.88546957  0.77448354  0.01542350     0.17700
C426        C  0.61560494  0.50768337  0.20202730     0.31600
C427        C  0.65880467  0.47972786  0.18127787     0.31600
C428        C  0.63234345  0.52261358  0.18052432    -0.04600
C429        C  0.63723617  0.49736340  0.22269693    -0.05400
C430        C  0.60865735  0.48125894  0.18599011    -0.05200
C431        C  0.65476363  0.50867304  0.17113122    -0.04600
C432        C  0.65836306  0.48244431  0.21185491    -0.05400
C433        C  0.63110959  0.46682877  0.17597849    -0.05300
C434        C  0.66734166  0.52503462  0.15288890    -0.30600
N435        N  0.65249079  0.54821436  0.14994325     0.15900
C436        C  0.63048473  0.54624508  0.16536076    -0.30600
H437        H  0.61487823  0.56174716  0.16574228     0.17800
C438        C  0.67333154  0.47148650  0.23267083    -0.29600
N439        N  0.66354936  0.48066642  0.25612204     0.14600
C440        C  0.64151404  0.49679189  0.25044267    -0.29600
C441        C  0.62428256  0.43968650  0.17496687    -0.29900
N442        N  0.59839969  0.43702714  0.18189501     0.15100
H443        H  0.63826288  0.42269617  0.17343421     0.17700
C444        C  0.58867254  0.46203500  0.18862562    -0.29900
H445        H  0.56941384  0.46516996  0.19793542     0.17700
H446        H  0.62975420  0.50752205  0.26529682     0.17700
H447        H  0.68647829  0.52102659  0.14349007     0.17800
H448        H  0.69078886  0.45824536  0.23118666     0.17700
N449        N  0.40188342  0.14996832  0.72854088     0.00000
C450        C  0.42213892  0.13498890  0.71838107    -0.10800
C451        C  0.42085363  0.10874133  0.73014118    -0.06300
C452        C  0.40078585  0.10944561  0.75044435    -0.07000
C453        C  0.38924135  0.13496329  0.74717480    -0.10900
N454        N  0.67317521  0.15147580  0.75546921     0.00000
C455        C  0.68659207  0.13675274  0.77491624    -0.10800
C456        C  0.67458363  0.11128168  0.77914172    -0.06300
C457        C  0.65272565  0.11121675  0.76093698    -0.07000
C458        C  0.65279365  0.13555774  0.74621491    -0.10900
N459        N  0.63461840  0.82294920  0.75471111     0.00000
C460        C  0.65111639  0.83769804  0.77103653    -0.10800
C461        C  0.64221358  0.86427861  0.77305972    -0.06300
C462        C  0.61862059  0.86521828  0.75731440    -0.07000
C463        C  0.61412192  0.83934071  0.74629394    -0.10900
N464        N  0.37564470  0.85475637  0.76865112     0.00000
C465        C  0.36405801  0.87208383  0.78672220    -0.10800
C466        C  0.37948715  0.89514177  0.79244115    -0.06300
C467        C  0.40214590  0.89150968  0.77632461    -0.07000
C468        C  0.39933224  0.86655929  0.76217245    -0.10900
C469        C  0.50086670  0.76699098  0.63395374     0.31600
C470        C  0.54204258  0.78620742  0.66612274     0.31600
C471        C  0.49240887  0.78678343  0.65636125    -0.04600
C472        C  0.51616121  0.74506280  0.65106908    -0.05400
C473        C  0.52382144  0.78221169  0.61991206    -0.05200
C474        C  0.51327449  0.79754192  0.67140468    -0.04600
C475        C  0.53776390  0.75443020  0.66664615    -0.05400
C476        C  0.54545514  0.79081161  0.63537394    -0.05300
C477        C  0.50183410  0.81338408  0.69132782    -0.30600
N478        N  0.47458172  0.81057938  0.69074193     0.15900
C479        C  0.46896005  0.79316417  0.66997404    -0.30600
H480        H  0.44938814  0.78486892  0.66529032     0.17800
C481        C  0.54780818  0.73172045  0.68055209    -0.29600
N482        N  0.53123697  0.70973778  0.67684289     0.14600
C483        C  0.51148874  0.71849776  0.65923094    -0.29600
C484        C  0.56712140  0.79096412  0.61740734    -0.29900
N485        N  0.55844100  0.78620851  0.59134079     0.15100
H486        H  0.58779421  0.79202906  0.62406563     0.17700
C487        C  0.53199147  0.78062410  0.59377917    -0.29900
H488        H  0.51970555  0.77198808  0.57833002     0.17700
H489        H  0.49387722  0.70701363  0.65349357     0.17700
H490        H  0.51298380  0.82571002  0.70553438     0.17800
H491        H  0.56587478  0.73196264  0.69278358     0.17700
C492        C  0.33895723  0.98467813  0.86608557     0.31600
C493        C  0.32575782  0.02865898  0.90025677     0.31600
C494        C  0.35899337  0.00926560  0.86718114    -0.04600
C495        C  0.31176270  0.99936866  0.86066415    -0.05400
C496        C  0.33600839  0.97766941  0.89656967    -0.05200
C497        C  0.35161490  0.03194991  0.88340913    -0.04600
C498        C  0.30468220  0.02139084  0.87754412    -0.05400
C499        C  0.32947004  0.00017755  0.91286678    -0.05300
C500        C  0.36108281  0.05479824  0.86975602    -0.30600
N501        N  0.37571362  0.04704482  0.84804691     0.15900
C502        C  0.37537165  0.01948035  0.84723200    -0.30600
H503        H  0.38413474  0.00789342  0.83107594     0.17800
C504        C  0.27870257  0.02898150  0.86943389    -0.29600
N505        N  0.26984222  0.01216639  0.84910436     0.14600
C506        C  0.28989781  0.99370918  0.84446574    -0.29600
C507        C  0.31610933  0.99051279  0.93462279    -0.29900
N508        N  0.31381679  0.96349672  0.93368497     0.15100
H509        H  0.30712074  0.00278151  0.94994404     0.17700
C510        C  0.32596708  0.95521560  0.91074839    -0.29900
H511        H  0.32692932  0.93430426  0.90498724     0.17700
H512        H  0.28846808  0.97640347  0.83105753     0.17700
H513        H  0.35495466  0.07564451  0.87357699     0.17800
H514        H  0.26707922  0.04549214  0.87798968     0.17700
C515        C  0.71150627  0.02414022  0.85627156     0.31600
C516        C  0.72291057  0.98216488  0.89141277     0.31600
C517        C  0.69503350  0.99703993  0.85215764    -0.04600
C518        C  0.74050455  0.01236567  0.85518180    -0.05400
C519        C  0.70862487  0.03062804  0.88677536    -0.05200
C520        C  0.70122428  0.97578550  0.87041257    -0.04600
C521        C  0.74596203  0.99103925  0.87293946    -0.05400
C522        C  0.71188749  0.00849578  0.90366242    -0.05300
C523        C  0.69456760  0.95165194  0.85804641    -0.30600
N524        N  0.68234159  0.95687038  0.83428987     0.15900
C525        C  0.68365261  0.98420856  0.82964420    -0.30600
H526        H  0.67827525  0.99386705  0.81075665     0.17800
C527        C  0.76980968  0.97885345  0.86526507    -0.29600
N528        N  0.78013468  0.99287768  0.84441717     0.14600
C529        C  0.76177250  0.01258361  0.83749420    -0.29600
C530        C  0.71310084  0.01750581  0.92960133    -0.29900
N531        N  0.71673418  0.04474904  0.93003686     0.15100
H532        H  0.71298340  0.00404838  0.94654101     0.17700
C533        C  0.71462450  0.05281520  0.90355584    -0.29900
H534        H  0.71961084  0.07285223  0.89628447     0.17700
H535        H  0.76340951  0.02556156  0.82020380     0.17700
H536        H  0.70004592  0.93134577  0.86479401     0.17800
H537        H  0.77854380  0.96045252  0.87381199     0.17700
C538        C  0.50591549  0.18337761  0.64813074     0.31600
C539        C  0.54394369  0.20563511  0.61347093     0.31600
C540        C  0.49799672  0.18447150  0.61770191    -0.04600
C541        C  0.51426136  0.21287023  0.65303207    -0.05400
C542        C  0.53372457  0.16834502  0.64686303    -0.05200
C543        C  0.51713068  0.19577574  0.60054251    -0.04600
C544        C  0.53369044  0.22388502  0.63642767    -0.05400
C545        C  0.55294460  0.17944455  0.62937282    -0.05300
C546        C  0.50417571  0.20045097  0.57616906    -0.30600
N547        N  0.47813650  0.19319762  0.57791010     0.15900
C548        C  0.47444806  0.18210316  0.60241107    -0.30600
H549        H  0.45525679  0.17464344  0.60870040     0.17800
C550        C  0.54041296  0.24868373  0.64749717    -0.29600
N551        N  0.52454917  0.25362566  0.66916700     0.14600
C552        C  0.50799959  0.23202888  0.67191895    -0.29600
C553        C  0.57758864  0.16815781  0.63743245    -0.29900
N554        N  0.57450041  0.15239695  0.65936846     0.15100
H555        H  0.59706518  0.17195984  0.62945687     0.17700
C556        C  0.54781155  0.15099305  0.66415863    -0.29900
H557        H  0.53976985  0.13965232  0.68063576     0.17700
H558        H  0.49266888  0.22996849  0.68690015     0.17700
H559        H  0.51213591  0.21061508  0.55888296     0.17800
H560        H  0.55671452  0.26136758  0.64102001     0.17700
O561        O  0.81094845  0.77499925  0.74535560    -0.79300
O562        O  0.79976891  0.79484268  0.86934284    -0.64000
O563        O  0.80409526  0.80048795  0.79427239    -1.10600
C564        C  0.89470706  0.77998843  0.81401811     1.07600
O565        O  0.83413757  0.82285225  0.87424303    -0.77200
O566        O  0.87164083  0.83522528  0.83778744    -0.64800
Ni567      Ni  0.78554574  0.77387608  0.77356989     1.34900
C568        C  0.86271226  0.84623292  0.81631681     0.86300
O569        O  0.76339518  0.80384766  0.82966632    -0.77700
O570        O  0.75849303  0.77085991  0.80007758    -0.88000
C571        C  0.81041705  0.81549149  0.88006490     0.85900
O572        O  0.80619407  0.74570323  0.78993632    -0.66200
O573        O  0.88985665  0.78270890  0.83902999    -0.85500
C574        C  0.80460400  0.73961416  0.81451865     0.86700
C575        C  0.74925983  0.79144998  0.81222593     1.08300
H576        H  0.84146357  0.76864596  0.83276341     0.40100
O577        O  0.83808335  0.78789745  0.83113436    -1.08100
O578        O  0.84718506  0.83369489  0.80011874    -0.64800
Ni579      Ni  0.84184427  0.79547851  0.79468237     1.26300
O580        O  0.79558370  0.75666441  0.83169118    -0.65000
O581        O  0.87943402  0.78841777  0.79507031    -0.77300
C582        C  0.83187237  0.78879025  0.74101639     0.86100
O583        O  0.84383513  0.80305792  0.75830173    -0.64500
Ni584      Ni  0.86192669  0.80271775  0.85646834     1.27400
Ni585      Ni  0.80087827  0.79589228  0.83182180     1.26100
H586        H  0.79885586  0.81872931  0.78885512     0.40700
O587        O  0.90987259  0.19225112  0.84663546    -0.79300
O588        O  0.79763555  0.19246810  0.82295389    -0.64000
O589        O  0.86209562  0.19716906  0.86364116    -1.10600
C590        C  0.86481431  0.10184632  0.84252756     1.07600
O591        O  0.78787417  0.16056149  0.85159395    -0.77200
O592        O  0.81713705  0.12860137  0.88329302    -0.64800
Ni593      Ni  0.88795939  0.22255504  0.85397651     1.34900
C594        C  0.83188337  0.14011208  0.90069861     0.86300
O595        O  0.82449622  0.23504351  0.84520238    -0.77700
O596        O  0.86368516  0.25205423  0.86045360    -0.88000
C597        C  0.78108823  0.17527661  0.83174468     0.85900
O598        O  0.88277430  0.22669370  0.81644703    -0.66200
O599        O  0.83930660  0.10401388  0.83925568    -0.85500
C600        C  0.86717093  0.21504328  0.79999219     0.86700
C601        C  0.83881328  0.25489246  0.85397045     1.08300
H602        H  0.84567752  0.15465023  0.82127025     0.40100
O603        O  0.84007077  0.15823133  0.83942047    -1.08100
O604        O  0.85369599  0.15247275  0.89488410    -0.64800
Ni605      Ni  0.87200081  0.15897535  0.86065985     1.26300
O606        O  0.84735698  0.20103292  0.80748176    -0.65000
O607        O  0.87961390  0.12010108  0.85420187    -0.77300
C608        C  0.92071279  0.18256217  0.86742269     0.86100
O609        O  0.90689286  0.16458027  0.87959477    -0.64500
Ni610      Ni  0.81353513  0.13227352  0.84561733     1.27400
Ni611      Ni  0.83083767  0.19626933  0.84214047     1.26100
H612        H  0.85697714  0.20114473  0.88188356     0.40700
N613        N  0.88474308  0.97831678  0.79811270     0.00000
C614        C  0.90069198  0.99994136  0.79349319    -0.10800
C615        C  0.92237024  0.99188647  0.77745052    -0.06300
C616        C  0.92009271  0.96352038  0.77357313    -0.07000
C617        C  0.89642245  0.95599961  0.78678356    -0.10900
N618        N  0.03871837  0.22914162  0.88668279     0.00000
C619        C  0.06133620  0.23802822  0.89920117    -0.10800
C620        C  0.05571468  0.25671555  0.91974162    -0.06300
C621        C  0.02722964  0.25937959  0.91909504    -0.07000
C622        C  0.01763648  0.24104963  0.89925398    -0.10900
O623        O  0.22027006  0.24515665  0.77894636    -0.79300
O624        O  0.27262842  0.16655196  0.86382356    -0.64000
O625        O  0.23870968  0.19636724  0.80141878    -1.10600
C626        C  0.16387326  0.19979595  0.86082323     1.07600
O627        O  0.23793618  0.14109758  0.86030637    -0.77200
O628        O  0.18736538  0.14326588  0.84328448    -0.64800
Ni629      Ni  0.25397281  0.22577644  0.78241470     1.34900
C630        C  0.18608008  0.14541904  0.81807157     0.86300
O631        O  0.28907655  0.17528831  0.81449204    -0.77700
O632        O  0.28897834  0.20864698  0.78349993    -0.88000
C633        C  0.25788157  0.14870352  0.87396473     0.85900
O634        O  0.26139193  0.24718721  0.81292629    -0.66200
O635        O  0.17786012  0.18484373  0.87684974    -0.85500
C636        C  0.26824156  0.24137623  0.83677588     0.86700
C637        C  0.29944117  0.18785371  0.79515692     1.08300
H638        H  0.22530364  0.20573614  0.86127829     0.40100
O639        O  0.22327691  0.19031851  0.84938008    -1.08100
O640        O  0.19465304  0.16609624  0.80575950    -0.64800
Ni641      Ni  0.20480127  0.20183267  0.81850250     1.26300
O642        O  0.27009355  0.21715972  0.84577968    -0.65000
O643        O  0.17119828  0.20624013  0.83708610    -0.77300
C644        C  0.19728320  0.23507602  0.77429465     0.86100
O645        O  0.18839950  0.21496120  0.78705754    -0.64500
Ni646      Ni  0.20792135  0.16228806  0.86943731     1.27400
Ni647      Ni  0.25692079  0.18255687  0.83246228     1.26100
H648        H  0.23725463  0.18157799  0.78867175     0.40700
N649        N  0.16656923  0.01678825  0.79274847     0.00000
C650        C  0.15224575  0.99457361  0.78478936    -0.10800
C651        C  0.13055765  0.00255087  0.76774866    -0.06300
C652        C  0.13147083  0.03124802  0.76625437    -0.07000
C653        C  0.15416513  0.03902170  0.78156568    -0.10900
O654        O  0.25944982  0.81995557  0.82459964    -0.79300
O655        O  0.14805616  0.79067770  0.82975541    -0.64000
O656        O  0.20703106  0.83065573  0.81118366    -1.10600
C657        C  0.20160505  0.86542136  0.89718553     1.07600
O658        O  0.12568574  0.82430634  0.84962809    -0.77200
O659        O  0.15140169  0.87380263  0.84299801    -0.64800
Ni660      Ni  0.23593488  0.81146110  0.79512840     1.34900
C661        C  0.17089591  0.88691980  0.83316837     0.86300
O662        O  0.17280740  0.79700149  0.78429090    -0.77700
O663        O  0.21253328  0.80444785  0.76520365    -0.88000
C664        C  0.12782633  0.79960113  0.84150014     0.85900
O665        O  0.23272130  0.77506605  0.80944905    -0.66200
O666        O  0.17608486  0.86605001  0.89326754    -0.85500
C667        C  0.21710559  0.76614966  0.82721382     0.86700
C668        C  0.18705034  0.80143047  0.76375321     1.08300
H669        H  0.18647959  0.81155554  0.86764534     0.40100
O670        O  0.18150391  0.82556364  0.85480813    -1.08100
O671        O  0.19525552  0.87856458  0.83518378    -0.64800
Ni672      Ni  0.21279603  0.84450049  0.84582397     1.26300
O673        O  0.19594326  0.77900571  0.83318692    -0.65000
O674        O  0.21833637  0.85686134  0.88039765    -0.77300
C675        C  0.26387338  0.84486953  0.82971621     0.86100
O676        O  0.24498504  0.86064354  0.83644024    -0.64500
Ni677      Ni  0.15221983  0.84542794  0.86965816     1.27400
Ni678      Ni  0.17703454  0.81054094  0.81990891     1.26100
H679        H  0.20145859  0.84516146  0.79926606     0.40700
N680        N  0.01999371  0.75011332  0.83607701     0.00000
C681        C  0.99482688  0.74214488  0.84174858    -0.10800
C682        C  0.99554045  0.72491373  0.86389557    -0.06300
C683        C  0.02220780  0.72256258  0.87200038    -0.07000
C684        C  0.03662542  0.73829814  0.85453875    -0.10900
N685        N  0.22635748  0.87408767  0.01996074     0.00000
C686        C  0.23106326  0.88660604  0.04360612    -0.10800
C687        C  0.24943610  0.90770931  0.04129390    -0.06300
C688        C  0.25683681  0.90737341  0.01448437    -0.07000
C689        C  0.24146784  0.88726735  0.00208333    -0.10900
O690        O  0.15749087  0.80120392  0.26115226    -0.79300
O691        O  0.16918983  0.85064277  0.15327993    -0.64000
O692        O  0.16614878  0.79770673  0.20727297    -1.10600
C693        C  0.26042603  0.81248725  0.21390599     1.07600
O694        O  0.19742785  0.81974152  0.13895776    -0.77200
O695        O  0.22247118  0.77890127  0.16242219    -0.64800
Ni696      Ni  0.13588726  0.79567186  0.22924596     1.34900
C697        C  0.21958606  0.76244388  0.18151682     0.86300
O698        O  0.12915776  0.81964523  0.16895288    -0.77700
O699        O  0.11335964  0.78901302  0.19776041    -0.88000
C700        C  0.18594430  0.84269580  0.13621833     0.85900
O701        O  0.12519805  0.83365755  0.22983538    -0.66200
O702        O  0.25705849  0.81344336  0.18836996    -0.85500
C703        C  0.13625412  0.85510036  0.22111525     0.86700
C704        C  0.11227180  0.80150675  0.17520878     1.08300
H705        H  0.20720732  0.84568573  0.19668691     0.40100
O706        O  0.20329726  0.82734201  0.19081982    -1.08100
O707        O  0.21346925  0.77014089  0.20487570    -0.64800
Ni708      Ni  0.20235822  0.80427980  0.22044441     1.26300
O709        O  0.15578036  0.85403660  0.20473634    -0.65000
O710        O  0.24020356  0.81094316  0.22987602    -0.77300
C711        C  0.17955154  0.78919686  0.26790238     0.86100
O712        O  0.19803416  0.78368780  0.25153700    -0.64500
Ni713      Ni  0.22706598  0.81711951  0.16340118     1.27400
Ni714      Ni  0.16593175  0.82453755  0.18054350     1.26100
H715        H  0.16635980  0.78061559  0.19767308     0.40700
N716        N  0.99777498  0.77621142  0.12178637     0.00000
C717        C  0.02088630  0.77124932  0.10811767    -0.10800
C718        C  0.01588772  0.75713973  0.08336608    -0.06300
C719        C  0.98716606  0.75331268  0.08241985    -0.07000
C720        C  0.97745538  0.76608690  0.10606816    -0.10900
O721        O  0.87504112  0.85699196  0.19695442    -0.79300
O722        O  0.80469592  0.78571253  0.12711899    -0.64000
O723        O  0.83036533  0.84311584  0.17000629    -1.10600
C724        C  0.82872011  0.77531975  0.23783858     1.07600
O725        O  0.77462192  0.78025287  0.15848942    -0.77200
O726        O  0.77273590  0.79573145  0.20996519    -0.64800
Ni727      Ni  0.86103278  0.86322086  0.16144295     1.34900
C728        C  0.77307735  0.82159991  0.20999398     0.86300
O729        O  0.81574012  0.83793405  0.11781007    -0.77700
O730        O  0.84661866  0.87065215  0.12590789    -0.88000
C731        C  0.78410000  0.77404977  0.13577129     0.85900
O732        O  0.88275655  0.83386056  0.14882831    -0.66200
O733        O  0.81534886  0.76012056  0.22172493    -0.85500
C734        C  0.87691895  0.81102205  0.13854362     0.86700
C735        C  0.82776938  0.85985409  0.11179255     1.08300
H736        H  0.83883293  0.78162053  0.17805471     0.40100
O737        O  0.82290276  0.79300002  0.17944421    -1.08100
O738        O  0.79463096  0.83421640  0.20615584    -0.64800
Ni739      Ni  0.83109960  0.82219204  0.20220551     1.26300
O740        O  0.85320197  0.80218175  0.13626811    -0.65000
O741        O  0.83091099  0.80082944  0.23404678    -0.77300
C742        C  0.86090929  0.86535720  0.21637908     0.86100
O743        O  0.84054081  0.85218011  0.22305588    -0.64500
Ni744      Ni  0.79465524  0.77031181  0.19016296     1.27400
Ni745      Ni  0.81867266  0.81473853  0.14777343     1.26100
H746        H  0.81589939  0.85644811  0.17061266     0.40700
N747        N  0.79360989  0.87062073  0.98576379     0.00000
C748        C  0.78800626  0.88693605  0.00698949    -0.10800
C749        C  0.77060686  0.90812454  0.99939568    -0.06300
C750        C  0.76497050  0.90446940  0.97217012    -0.07000
C751        C  0.77932644  0.88123917  0.96465864    -0.10900
O752        O  0.15869637  0.11540105  0.21930510    -0.79300
O753        O  0.20744807  0.22602904  0.20297089    -0.64000
O754        O  0.15562652  0.16897506  0.20878159    -1.10600
C755        C  0.19084497  0.14984559  0.12067236     1.07600
O756        O  0.18379959  0.23722246  0.16671729    -0.77200
O757        O  0.14932197  0.20710852  0.13744431    -0.64800
Ni758      Ni  0.15353497  0.14743367  0.24021612     1.34900
C759        C  0.13009931  0.19237059  0.14504490     0.86300
O760        O  0.17632942  0.20997260  0.24517817    -0.77700
O761        O  0.14926623  0.17885341  0.26294692    -0.88000
C762        C  0.20216344  0.24278088  0.18386900     0.85900
O763        O  0.19060632  0.14484328  0.24911237    -0.66200
O764        O  0.19275857  0.17582074  0.11947070    -0.85500
C765        C  0.21131960  0.15326675  0.23746517     0.86700
C766        C  0.16252582  0.20091088  0.26486625     1.08300
H767        H  0.20658575  0.17450893  0.17299129     0.40100
O768        O  0.18852950  0.18199151  0.17309775    -1.08100
O769        O  0.13401899  0.17032105  0.15809367    -0.64800
Ni770      Ni  0.16482885  0.15184007  0.17444078     1.26300
O771        O  0.21099066  0.17297597  0.22080570    -0.65000
O772        O  0.17800569  0.13736723  0.13954598    -0.77300
C773        C  0.14114432  0.10823759  0.20223200     0.86100
O774        O  0.14052219  0.12071000  0.17961657    -0.64500
Ni775      Ni  0.18736645  0.20603485  0.14355938     1.27400
Ni776      Ni  0.18220217  0.19680804  0.20826643     1.26100
H777        H  0.13830744  0.17798221  0.20680442     0.40700
N778        N  0.99719786  0.22409539  0.14303422     0.00000
C779        C  0.97496760  0.23611634  0.13127401    -0.10800
C780        C  0.98143236  0.25037232  0.10750745    -0.06300
C781        C  0.00986113  0.24680433  0.10538543    -0.07000
C782        C  0.01842638  0.23053310  0.12741197    -0.10900
N783        N  0.10533507  0.98639730  0.23668604     0.00000
C784        C  0.09085047  0.00931423  0.24284048    -0.10800
C785        C  0.06865143  0.00309425  0.25960924    -0.06300
C786        C  0.06968603  0.97282579  0.26210599    -0.07000
C787        C  0.09293213  0.96446732  0.24752141    -0.10900
N788        N  0.25106919  0.13285352  0.00687956     0.00000
C789        C  0.25520435  0.11553194  0.02747684    -0.10800
C790        C  0.27387191  0.09505618  0.01924563    -0.06300
C791        C  0.28126438  0.09953033  0.99149148    -0.07000
C792        C  0.26548562  0.12340700  0.98566832    -0.10900
N793        N  0.85198897  0.99615363  0.25098401     0.00000
C794        C  0.86232731  0.01618849  0.26671968    -0.10800
C795        C  0.88289427  0.00577305  0.28390071    -0.06300
C796        C  0.88445833  0.97788907  0.27831153    -0.07000
C797        C  0.86518723  0.97316525  0.25835489    -0.10900
O798        O  0.75049912  0.19504670  0.25161052    -0.79300
O799        O  0.86035648  0.21555707  0.19039671    -0.64000
O800        O  0.78801817  0.20148214  0.21006345    -1.10600
C801        C  0.81861768  0.11425310  0.22423688     1.07600
O802        O  0.87790360  0.17375736  0.18519363    -0.77200
O803        O  0.82975322  0.15951164  0.16475547    -0.64800
Ni804      Ni  0.77239850  0.22387601  0.23713514     1.34900
C805        C  0.80431644  0.15821198  0.16220055     0.86300
O806        O  0.81417376  0.24306948  0.18792540    -0.77700
O807        O  0.79076246  0.25547364  0.22413407    -0.88000
C808        C  0.87899338  0.19945077  0.18286944     0.85900
O809        O  0.80062077  0.21599185  0.26263916    -0.66200
O810        O  0.82708719  0.11907800  0.20106674    -0.85500
C811        C  0.82518300  0.22173868  0.25922525     0.86700
C812        C  0.80014522  0.26015145  0.20094166     1.08300
H813        H  0.84089483  0.17433929  0.23379718     0.40100
O814        O  0.83197051  0.17333706  0.21646233    -1.08100
O815        O  0.78921769  0.15456580  0.18266270    -0.64800
Ni816      Ni  0.79436918  0.16543686  0.22075325     1.26300
O817        O  0.83502402  0.22461641  0.23593629    -0.65000
O818        O  0.80182227  0.13017966  0.23470233    -0.77300
C819        C  0.74234600  0.17322691  0.24038263     0.86100
O820        O  0.75706909  0.15934344  0.22482060    -0.64500
Ni821      Ni  0.85112409  0.14803405  0.19430032     1.27400
Ni822      Ni  0.82442576  0.20872213  0.20159903     1.26100
H823        H  0.77683038  0.20237235  0.19401968     0.40700
N824        N  0.78761794  0.14936986  0.02756005     0.00000
C825        C  0.78030155  0.13364899  0.00604914    -0.10800
C826        C  0.76343702  0.11266815  0.01447207    -0.06300
C827        C  0.76202501  0.11395861  0.04279563    -0.07000
C828        C  0.77680786  0.13750568  0.04998679    -0.10900
N829        N  0.18940614  0.74109816  0.39283829     0.00000
C830        C  0.17281034  0.75461662  0.37529679    -0.10800
C831        C  0.14637887  0.75477783  0.38357174    -0.06300
C832        C  0.14772386  0.73954491  0.40731172    -0.07000
C833        C  0.17432080  0.73122611  0.41286745    -0.10900
N834        N  0.15840292  0.75629663  0.64997738     0.00000
C835        C  0.14397138  0.74718775  0.62830646    -0.10800
C836        C  0.11953496  0.76211076  0.62601691    -0.06300
C837        C  0.11921216  0.78136656  0.64692176    -0.07000
C838        C  0.14336521  0.77669812  0.66121075    -0.10900
N839        N  0.86133544  0.74265598  0.62708928     0.00000
C840        C  0.87304960  0.76417675  0.63949306    -0.10800
C841        C  0.89440144  0.77404687  0.62505140    -0.06300
C842        C  0.89516246  0.75697474  0.60278435    -0.07000
C843        C  0.87484421  0.73789110  0.60453787    -0.10900
N844        N  0.85425273  0.72225665  0.35642983     0.00000
C845        C  0.87128614  0.73722508  0.34061733    -0.10800
C846        C  0.89658173  0.74186240  0.35308151    -0.06300
C847        C  0.89414530  0.72718981  0.37761357    -0.07000
C848        C  0.86810928  0.71513953  0.37950157    -0.10900
C849        C  0.82789235  0.63606207  0.46646644     0.31600
C850        C  0.80972276  0.59493716  0.50241340     0.31600
C851        C  0.84200199  0.63390762  0.49422982    -0.04600
C852        C  0.79738778  0.63701288  0.47449690    -0.05400
C853        C  0.83047017  0.60647699  0.45770186    -0.05200
C854        C  0.83263268  0.61381790  0.51266416    -0.04600
C855        C  0.78881749  0.61755014  0.49323597    -0.05400
C856        C  0.82193944  0.58608740  0.47541798    -0.05300
C857        C  0.83870594  0.62392352  0.53791914    -0.30600
N858        N  0.85259905  0.64736650  0.53527435     0.15900
C859        C  0.85439885  0.65364231  0.50901593    -0.30600
H860        H  0.86084688  0.67317584  0.50152997     0.17800
C861        C  0.76369006  0.62668710  0.50165577    -0.29600
N862        N  0.75460281  0.64843531  0.48650551     0.14600
C863        C  0.77525325  0.65391739  0.46938555    -0.29600
C864        C  0.82119947  0.56252243  0.46083744    -0.29900
N865        N  0.82760158  0.56823525  0.43505031     0.15100
H866        H  0.81165323  0.54392287  0.46714597     0.17700
C867        C  0.83341982  0.59482514  0.43304604    -0.29900
H868        H  0.83469249  0.60570465  0.41420911     0.17700
H869        H  0.77461494  0.66866481  0.45343497     0.17700
H870        H  0.83088874  0.61651763  0.55667234     0.17800
H871        H  0.75387239  0.61850467  0.51894251     0.17700
C872        C  0.01440471  0.86543428  0.29201650     0.31600
C873        C  0.98122166  0.82045352  0.30642080     0.31600
C874        C  0.98860414  0.87134511  0.30769892    -0.04600
C875        C  0.00344157  0.84677621  0.26842588    -0.05400
C876        C  0.02760838  0.84254067  0.31027409    -0.05200
C877        C  0.97159183  0.84969415  0.31363553    -0.04600
C878        C  0.98653122  0.82467376  0.27539685    -0.05400
C879        C  0.01082960  0.82061677  0.31774204    -0.05300
C880        C  0.94664315  0.86147764  0.31881785    -0.30600
N881        N  0.94877137  0.88909926  0.31830859     0.15900
C882        C  0.97442380  0.89504871  0.31207271    -0.30600
H883        H  0.98091209  0.91525624  0.30662328     0.17800
C884        C  0.97993231  0.81187125  0.25102070    -0.29600
N885        N  0.99340626  0.82333774  0.23028783     0.14600
C886        C  0.00769913  0.84457186  0.24077798    -0.29600
C887        C  0.02703685  0.80192148  0.33169873    -0.29900
N888        N  0.05285787  0.81099366  0.33281406     0.15100
H889        H  0.02060701  0.78260893  0.33969159     0.17700
C890        C  0.05353251  0.83495588  0.31896278    -0.29900
H891        H  0.07189118  0.84560461  0.31468862     0.17700
H892        H  0.02069506  0.85738313  0.22925949     0.17700
H893        H  0.92776694  0.85074628  0.31956461     0.17800
H894        H  0.96602766  0.79543253  0.24812900     0.17700
C895        C  0.99735113  0.89004406  0.71661249     0.31600
C896        C  0.03635819  0.86116109  0.68757718     0.31600
C897        C  0.02310741  0.90580385  0.70923760    -0.04600
C898        C  0.00942886  0.86404882  0.72959786    -0.05400
C899        C  0.98884268  0.87987412  0.68802715    -0.05200
C900        C  0.04286465  0.89157460  0.69450771    -0.04600
C901        C  0.02883937  0.85004133  0.71493470    -0.05400
C902        C  0.00844265  0.86517776  0.67363389    -0.05300
C903        C  0.06418831  0.90950085  0.69209089    -0.30600
N904        N  0.05900482  0.93252828  0.70639510     0.15900
C905        C  0.03361511  0.93087808  0.71580178    -0.30600
H906        H  0.02466015  0.94593016  0.72890438     0.17800
C907        C  0.03731266  0.82785577  0.72959424    -0.29600
N908        N  0.02345676  0.82751011  0.75261577     0.14600
C909        C  0.00644033  0.84949984  0.75310774    -0.29600
C910        C  0.99566919  0.85482939  0.65104175    -0.29900
N911        N  0.96899133  0.86085709  0.65198619     0.15100
H912        H  0.00433543  0.84085054  0.63668383     0.17700
C913        C  0.96532881  0.87830501  0.67281454    -0.29900
H914        H  0.94588696  0.88667664  0.67762136     0.17700
H915        H  0.99280233  0.85431433  0.76921009     0.17700
H916        H  0.08302598  0.90572699  0.68219776     0.17800
H917        H  0.05242629  0.81290368  0.72399787     0.17700
C918        C  0.22265748  0.65358218  0.49264499     0.31600
C919        C  0.23514964  0.61390765  0.53019586     0.31600
C920        C  0.22686261  0.62495918  0.48155818    -0.04600
C921        C  0.24920348  0.65779183  0.50874962    -0.05400
C922        C  0.20302371  0.65027764  0.51573162    -0.05200
C923        C  0.23327533  0.60486182  0.50039413    -0.04600
C924        C  0.25582683  0.63765441  0.52788575    -0.05400
C925        C  0.20817406  0.62958836  0.53436805    -0.05300
C926        C  0.24753845  0.58514888  0.48660268    -0.30600
N927        N  0.24924181  0.59174190  0.46035190     0.15900
C928        C  0.23778754  0.61679023  0.45743728    -0.30600
H929        H  0.23921009  0.62937379  0.43971076     0.17800
C930        C  0.28071583  0.64480075  0.53874386    -0.29600
N931        N  0.28951206  0.66810405  0.52667656     0.14600
C932        C  0.26988813  0.67602114  0.50896756    -0.29600
C933        C  0.19535253  0.63803299  0.55770644    -0.29900
N934        N  0.18376926  0.66334141  0.55444194     0.15100
H935        H  0.19609614  0.62631347  0.57583412     0.17700
C936        C  0.19018616  0.67089538  0.52916832    -0.29900
H937        H  0.18947313  0.69155029  0.52168830     0.17700
H938        H  0.27104111  0.69373733  0.49665384     0.17700
H939        H  0.25693897  0.56735694  0.49548021     0.17800
H940        H  0.29141758  0.63360879  0.55429695     0.17700
N941        N  0.36223830  0.26431567  0.48846069     0.00000
C942        C  0.37557366  0.25649900  0.51182574    -0.10800
C943        C  0.39804438  0.23957301  0.50510375    -0.06300
C944        C  0.39960433  0.23916874  0.47687397    -0.07000
C945        C  0.37821058  0.25544228  0.46768559    -0.10900
N946        N  0.31723863  0.49941589  0.35029982     0.00000
C947        C  0.30628452  0.52160772  0.36191269    -0.10800
C948        C  0.29051709  0.51418693  0.38337616    -0.06300
C949        C  0.29186750  0.48589350  0.38459703    -0.07000
C950        C  0.30929772  0.47775152  0.36452463    -0.10900
N951        N  0.50717111  0.33076876  0.25357249     0.00000
C952        C  0.53293588  0.33791428  0.24914978    -0.10800
C953        C  0.53444850  0.35567438  0.22719327    -0.06300
C954        C  0.50796730  0.35938079  0.21818879    -0.07000
C955        C  0.49219160  0.34353516  0.23442318    -0.10900
O956        O  0.28393037  0.31348102  0.36154076    -0.79300
O957        O  0.39163282  0.32383079  0.29659697    -0.64000
O958        O  0.32094631  0.32442789  0.32319063    -1.10600
C959        C  0.32545167  0.23228499  0.29345189     1.07600
O960        O  0.37392425  0.30545489  0.26013064    -0.77200
O961        O  0.32990082  0.27705798  0.25191615    -0.64800
Ni962      Ni  0.31569921  0.33483728  0.35908948     1.34900
C963        C  0.31300967  0.29611648  0.25524862     0.86300
O964        O  0.35927796  0.36271416  0.31706105    -0.77700
O965        O  0.34630049  0.35813455  0.35877706    -0.88000
C966        C  0.39231716  0.31871461  0.27168848     0.85900
O967        O  0.33748503  0.30507781  0.37057907    -0.66200
O968        O  0.34880453  0.23749381  0.28475677    -0.85500
C969        C  0.36264417  0.30368332  0.36669821     0.86700
C970        C  0.35143088  0.37306793  0.33887982     1.08300
H971        H  0.36067132  0.27610515  0.31980115     0.40100
O972        O  0.35156489  0.28660767  0.30598399    -1.08100
O973        O  0.30506236  0.30230483  0.27857042    -0.64800
Ni974      Ni  0.31457324  0.28764309  0.31340791     1.26300
O975        O  0.37365870  0.31515161  0.34661181    -0.65000
O976        O  0.30902965  0.25022138  0.30255261    -0.77300
C977        C  0.26968383  0.29975619  0.34502337     0.86100
O978        O  0.27800699  0.29038620  0.32281060    -0.64500
Ni979      Ni  0.36180553  0.27140371  0.27295377     1.27400
Ni980      Ni  0.35701404  0.32438986  0.31161726     1.26100
H981        H  0.31030304  0.33647069  0.31195738     0.40700
O982        O  0.70224523  0.24955004  0.28399109    -0.79300
O983        O  0.72122361  0.35744785  0.34966734    -0.64000
O984        O  0.71416825  0.28467250  0.32685144    -1.10600
C985        C  0.62418822  0.31384166  0.31412962     1.07600
O986        O  0.68639157  0.34798861  0.37431152    -0.77200
O987        O  0.64447290  0.31515577  0.36995220    -0.64800
Ni988      Ni  0.73257040  0.27129479  0.29660054     1.34900
C989        C  0.65690344  0.29380754  0.37718231     0.86300
O990        O  0.75540052  0.31414201  0.34582831    -0.77700
O991        O  0.76459907  0.29030512  0.30831455    -0.88000
C992        C  0.70477317  0.36387202  0.36791003     0.85900
O993        O  0.72212950  0.30083853  0.27319839    -0.66200
O994        O  0.63086989  0.33721411  0.32312753    -0.85500
C995        C  0.72743480  0.32579220  0.27743410     0.86700
C996        C  0.77093887  0.29936564  0.33166893     1.08300
H997        H  0.68083249  0.33356853  0.30837875     0.40100
O998        O  0.68230383  0.32535462  0.32596095    -1.08100
O999        O  0.67314860  0.28193234  0.36130006    -0.64800
Ni1000     Ni  0.67666876  0.28806371  0.32268979     1.26300
O1001       O  0.73006126  0.33534330  0.30124172    -0.65000
O1002       O  0.63843620  0.29215666  0.31708965    -0.77300
C1003       C  0.68320379  0.23953426  0.29771491     0.86100
O1004       O  0.67390970  0.25099599  0.31830743    -0.64500
Ni1005     Ni  0.65839255  0.34369401  0.34871176     1.27400
Ni1006     Ni  0.71917092  0.32140549  0.33632467     1.26100
H1007       H  0.71864757  0.27318620  0.34207273     0.40700
O1008       O  0.37983292  0.67861192  0.38603414    -0.79300
O1009       O  0.32295939  0.66282646  0.27717771    -0.64000
O1010       O  0.36934897  0.68748352  0.33211906    -1.10600
C1011       C  0.29737983  0.73614757  0.36106280     1.07600
O1012       O  0.28688538  0.69041297  0.27981970    -0.77200
O1013       O  0.32478880  0.72773179  0.29141131    -0.64800
Ni1014     Ni  0.39202652  0.66454713  0.35245281     1.34900
C1015       C  0.34621396  0.73682889  0.30215720     0.86300
O1016       O  0.37530757  0.65752147  0.28619713    -0.77700
O1017       O  0.40501071  0.64921692  0.32024383    -0.88000
C1018       C  0.30026587  0.67135259  0.26856222     0.85900
O1019       O  0.36800155  0.63532789  0.35595275    -0.66200
O1020       O  0.29833727  0.74237683  0.33650506    -0.85500
C1021       C  0.34823384  0.62770301  0.34162206     0.86700
C1022       C  0.39689710  0.64677779  0.29593210     1.08300
H1023       H  0.30803135  0.67647739  0.33532342     0.40100
O1024       O  0.31826917  0.69038437  0.32667020    -1.08100
O1025       O  0.34996810  0.73702195  0.32773549    -0.64800
Ni1026     Ni  0.34357078  0.70645611  0.35161389     1.26300
O1027       O  0.33910410  0.64110869  0.32186294    -0.65000
O1028       O  0.31664314  0.72354406  0.37204087    -0.77300
C1029       C  0.37977472  0.70358504  0.39253213     0.86100
O1030       O  0.36962798  0.72068124  0.37619392    -0.64500
Ni1031     Ni  0.29412552  0.71534424  0.30898464     1.27400
Ni1032     Ni  0.34628449  0.67449069  0.30515671     1.26100
H1033       H  0.38082252  0.69905804  0.32286608     0.40700
O1034       O  0.40269550  0.31712520  0.67618145    -0.79300
O1035       O  0.28193910  0.31118750  0.65347782    -0.64000
O1036       O  0.34992467  0.33269997  0.67982202    -1.10600
C1037       C  0.34409272  0.24856810  0.72408071     1.07600
O1038       O  0.27312206  0.30681946  0.69662686    -0.77200
O1039       O  0.30270732  0.29563451  0.74068463    -0.64800
Ni1040     Ni  0.37865223  0.34248633  0.65802601     1.34900
C1041       C  0.31742514  0.31583680  0.74610080     0.86300
O1042       O  0.31275533  0.35560019  0.64533024    -0.77700
O1043       O  0.35548418  0.36909307  0.64046437    -0.88000
C1044       C  0.26528584  0.30867667  0.67239385     0.85900
O1045       O  0.37397521  0.31725794  0.62900539    -0.66200
O1046       O  0.31898308  0.24800095  0.71821282    -0.85500
C1047       C  0.35386529  0.30439407  0.61974026     0.86700
C1048       C  0.32999753  0.37308197  0.63790036     1.08300
H1049       H  0.32816837  0.27499466  0.67305466     0.40100
O1050       O  0.32323159  0.28973151  0.68498019    -1.08100
O1051       O  0.33657092  0.32237961  0.73085134    -0.64800
Ni1052     Ni  0.35443130  0.30199756  0.70255476     1.26300
O1053       O  0.33117310  0.30417513  0.63168942    -0.65000
O1054       O  0.35804175  0.27022681  0.72465419    -0.77300
C1055       C  0.40624468  0.31859411  0.70154778     0.86100
O1056       O  0.38670203  0.31514044  0.71701158    -0.64500
Ni1057     Ni  0.29578474  0.27723859  0.70744012     1.27400
Ni1058     Ni  0.31709730  0.32197476  0.66427045     1.26100
H1059       H  0.34621012  0.34851146  0.69082261     0.40700
N1060       N  0.51068879  0.61145045  0.26246385     0.00000
C1061       C  0.48866951  0.59736555  0.25332972    -0.10800
C1062       C  0.49545228  0.57365688  0.23875583    -0.06300
C1063       C  0.52412855  0.57344884  0.23965459    -0.07000
C1064       C  0.53263941  0.59700417  0.25431038    -0.10900
N1065       N  0.65138607  0.70771216  0.49235574     0.00000
C1066       C  0.63964088  0.72119191  0.51314677    -0.10800
C1067       C  0.61775321  0.73778589  0.50354047    -0.06300
C1068       C  0.61571697  0.73278934  0.47520398    -0.07000
C1069       C  0.63699885  0.71453193  0.46978363    -0.10900
N1070       N  0.73136053  0.47992258  0.35016703     0.00000
C1071       C  0.74563522  0.50218577  0.35717468    -0.10800
C1072       C  0.76381465  0.49612274  0.37742341    -0.06300
C1073       C  0.75938910  0.46984899  0.38562450    -0.07000
C1074       C  0.73635023  0.46179917  0.37075384    -0.10900
O1075       O  0.69192536  0.69304629  0.36064539    -0.79300
O1076       O  0.71448968  0.68966540  0.24196823    -0.64000
O1077       O  0.67957611  0.69574273  0.30851139    -1.10600
C1078       C  0.70502928  0.60212392  0.31183446     1.07600
O1079       O  0.68744111  0.65496687  0.23358174    -0.77200
O1080       O  0.66193416  0.62045899  0.26653172    -0.64800
Ni1081     Ni  0.68879487  0.72173489  0.33504414     1.34900
C1082       C  0.64398285  0.63120243  0.28110239     0.86300
O1083       O  0.69390397  0.73273433  0.26878814    -0.77700
O1084       O  0.68661927  0.75139070  0.30956572    -0.88000
C1085       C  0.69933846  0.67626729  0.22579705     0.85900
O1086       O  0.72666904  0.72023937  0.33327736    -0.66200
O1087       O  0.71014742  0.60388221  0.28687301    -0.85500
C1088       C  0.74340251  0.71200107  0.31620608     0.86700
C1089       C  0.68871374  0.75308195  0.28404249     1.08300
H1090       H  0.72321660  0.65481041  0.29202881     0.40100
O1091       O  0.70474750  0.65725571  0.28615375    -1.08100
O1092       O  0.64969061  0.64886732  0.29918134    -0.64800
Ni1093     Ni  0.68385125  0.65764218  0.31725467     1.26300
O1094       O  0.73593458  0.70214764  0.29323027    -0.65000
O1095       O  0.69128239  0.61986409  0.32490078    -0.77300
C1096       C  0.67168247  0.67888692  0.36610860     0.86100
O1097       O  0.66370537  0.66095400  0.34958393    -0.64500
Ni1098     Ni  0.69885619  0.62964953  0.26052802     1.27400
Ni1099     Ni  0.69979320  0.69462703  0.27677433     1.26100
H1100       H  0.66099103  0.69920352  0.30344216     0.40700
N1101       N  0.65127419  0.26554927  0.50745599     0.00000
C1102       C  0.63932260  0.25661158  0.53013793    -0.10800
C1103       C  0.61516828  0.24289226  0.52479749    -0.06300
C1104       C  0.61239919  0.24398259  0.49652182    -0.07000
C1105       C  0.63493370  0.25798701  0.48677726    -0.10900
N1106       N  0.74654440  0.48903036  0.61405371     0.00000
C1107       C  0.75473993  0.50925066  0.59685025    -0.10800
C1108       C  0.76998063  0.49968262  0.57443524    -0.06300
C1109       C  0.77044896  0.47025082  0.57865350    -0.07000
C1110       C  0.75557177  0.46540290  0.60261312    -0.10900
N1111       N  0.52807416  0.34395097  0.74182028     0.00000
C1112       C  0.50513295  0.35410973  0.75139603    -0.10800
C1113       C  0.51011229  0.37148661  0.77273033    -0.06300
C1114       C  0.53828035  0.37202282  0.77670577    -0.07000
C1115       C  0.54846546  0.35454298  0.75650962    -0.10900
O1116       O  0.65231347  0.30892316  0.70919187    -0.79300
O1117       O  0.76446137  0.28855606  0.70878724    -0.64000
O1118       O  0.70021018  0.32912237  0.71199323    -1.10600
C1119       C  0.69259733  0.30074616  0.62229421     1.07600
O1120       O  0.77466171  0.31308737  0.67342967    -0.77200
O1121       O  0.74226635  0.34408993  0.64263421    -0.64800
Ni1122     Ni  0.67491834  0.31972411  0.73766072     1.34900
C1123       C  0.72510032  0.36181076  0.64963341     0.86300
O1124       O  0.73920663  0.31464117  0.74884739    -0.77700
O1125       O  0.69956809  0.33023164  0.76479703    -0.88000
C1126       C  0.78122420  0.29590356  0.69149096     0.85900
O1127       O  0.68153268  0.28211076  0.74502122    -0.66200
O1128       O  0.71831759  0.29895267  0.62222826    -0.85500
C1129       C  0.69728743  0.26501410  0.73437187     0.86700
C1130       C  0.72500173  0.32641946  0.76680646     1.08300
H1131       H  0.71598886  0.28270034  0.67349511     0.40100
O1132       O  0.72134587  0.30144958  0.67534238    -1.08100
O1133       O  0.70437114  0.35635276  0.66344355    -0.64800
Ni1134     Ni  0.68913077  0.32223128  0.67598132     1.26300
O1135       O  0.71643850  0.27243777  0.71971176    -0.65000
O1136       O  0.67923585  0.31215443  0.64082699    -0.77300
C1137       C  0.64131863  0.32884997  0.69735643     0.86100
O1138       O  0.65512293  0.34114204  0.68009664    -0.64500
Ni1139     Ni  0.74626179  0.30615643  0.64805365     1.27400
Ni1140     Ni  0.73161158  0.30768906  0.71170948     1.26100
H1141       H  0.70482458  0.34809867  0.71411505     0.40700
N1142       N  0.30068190  0.50586161  0.63516502     0.00000
C1143       C  0.28888817  0.52890344  0.62495054    -0.10800
C1144       C  0.27295564  0.52250590  0.60124407    -0.06300
C1145       C  0.27539236  0.49307240  0.59765842    -0.07000
C1146       C  0.29281910  0.48467318  0.61903151    -0.10900
N1147       N  0.52314487  0.60636269  0.73504395     0.00000
C1148       C  0.54368167  0.58924760  0.74233083    -0.10800
C1149       C  0.53547770  0.56668861  0.75761535    -0.06300
C1150       C  0.50604244  0.57175629  0.76085724    -0.07000
C1151       C  0.50018227  0.59579295  0.74487582    -0.10900
N1152       N  0.39386772  0.71994958  0.52464567     0.00000
C1153       C  0.40780519  0.72947128  0.50351982    -0.10800
C1154       C  0.43105935  0.74327925  0.51235887    -0.06300
C1155       C  0.43075546  0.74258442  0.54038920    -0.07000
C1156       C  0.40802830  0.72791917  0.54660840    -0.10900
O1157       O  0.29933235  0.65104681  0.75067326    -0.79300
O1158       O  0.36969928  0.68429061  0.65877663    -0.64000
O1159       O  0.34013102  0.67718623  0.72710235    -1.10600
C1160       C  0.26996708  0.73098079  0.68356612     1.07600
O1161       O  0.36430062  0.72775390  0.66740915    -0.77200
O1162       O  0.33014773  0.75799261  0.69562234    -0.64800
Ni1163     Ni  0.33607350  0.64202227  0.74250292     1.34900
C1164       C  0.33204663  0.75478778  0.72071429     0.86300
O1165       O  0.38734994  0.65856985  0.70262137    -0.77700
O1166       O  0.37333675  0.63152319  0.73582885    -0.88000
C1167       C  0.37316143  0.70890579  0.65256654     0.85900
O1168       O  0.32355293  0.62239784  0.71139558    -0.66200
O1169       O  0.28813346  0.73745402  0.66694254    -0.85500
C1170       C  0.32603704  0.62547025  0.68621130     0.86700
C1171       C  0.39165784  0.64014528  0.72026602     1.08300
H1172       H  0.31146363  0.68779031  0.67251310     0.40100
O1173       O  0.32286670  0.69878378  0.68397517    -1.08100
O1174       O  0.32634475  0.73204868  0.73171814    -0.64800
Ni1175     Ni  0.30823374  0.69891124  0.71820406     1.26300
O1176       O  0.33861514  0.64583196  0.67684886    -0.65000
O1177       O  0.27578668  0.71903815  0.70609415    -0.77300
C1178       C  0.29274415  0.67245887  0.76356478     0.86100
O1179       O  0.29468383  0.69587827  0.75323990    -0.64500
Ni1180     Ni  0.32634047  0.73269771  0.66690132     1.27400
Ni1181     Ni  0.35514899  0.67849815  0.69262090     1.26100
H1182       H  0.35154980  0.68749134  0.73917214     0.40700
O1183       O  0.63744422  0.64365388  0.67624087    -0.79300
O1184       O  0.74738974  0.68169947  0.64127266    -0.64000
O1185       O  0.69209186  0.64158440  0.67321358    -1.10600
C1186       C  0.67961330  0.72440066  0.71918207     1.07600
O1187       O  0.76098140  0.69138465  0.68256297    -0.77200
O1188       O  0.73489915  0.69364074  0.72921395    -0.64800
Ni1189     Ni  0.66315368  0.62836076  0.65200156     1.34900
C1190       C  0.72603982  0.67139197  0.73804668     0.86300
O1191       O  0.72850864  0.63107286  0.63354467    -0.77700
O1192       O  0.68790535  0.61209936  0.62716044    -0.88000
C1193       C  0.76492673  0.69084214  0.65755804     0.85900
O1194       O  0.65670399  0.65884003  0.62881179    -0.66200
O1195       O  0.70180302  0.73234792  0.70934024    -0.85500
C1196       C  0.67274921  0.67485656  0.61752336     0.86700
C1197       C  0.71317991  0.61333059  0.62269134     1.08300
H1198       H  0.69560872  0.70274050  0.66654247     0.40100
O1199       O  0.70639686  0.69041397  0.67748837    -1.08100
O1200       O  0.70893524  0.65732007  0.72468496    -0.64800
Ni1201     Ni  0.68242254  0.66970352  0.69776193     1.26300
O1202       O  0.69722722  0.67603712  0.62538038    -0.65000
O1203       O  0.67213094  0.69964240  0.72026879    -0.77300
C1204       C  0.63835906  0.63785763  0.70104751     0.86100
O1205       O  0.65763383  0.64693136  0.71520038    -0.64500
Ni1206     Ni  0.73143983  0.71208598  0.69584334     1.27400
Ni1207     Ni  0.71866056  0.66137696  0.65527805     1.26100
H1208       H  0.70049011  0.62652963  0.68279871     0.40700
O1209       O  0.04857621  0.23914626  0.54370485    -0.72800
O1210       O  0.99487623  0.21894449  0.49312480    -0.72900
O1211       O  0.04434315  0.24027000  0.49049717    -0.72900
O1212       O  0.99951198  0.21756904  0.54704019    -0.73000
O1213       O  0.98180240  0.25964196  0.54882603    -0.72900
O1214       O  0.02797543  0.28282464  0.49282200    -0.72900
O1215       O  0.97800877  0.26143356  0.49488113    -0.72800
O1216       O  0.03093150  0.28077996  0.54668321    -0.72900
Ni1217     Ni  0.02236098  0.22745933  0.51841962     1.25400
Ni1218     Ni  0.00389041  0.27268938  0.52075296     1.25400
C1219       C  0.04846803  0.26296960  0.55408993     0.89400
C1220       C  0.97792708  0.23718462  0.48552085     0.89300
C1221       C  0.04464320  0.26530245  0.48340439     0.89300
C1222       C  0.98395814  0.23523411  0.55777146     0.89500
O1223       O  0.98114927  0.76115028  0.51514515    -0.72800
O1224       O  0.04129825  0.76057105  0.47089627    -0.72900
O1225       O  0.98809032  0.75607194  0.46265568    -0.72900
O1226       O  0.03399264  0.76566325  0.52355500    -0.73000
O1227       O  0.03907523  0.72092596  0.52756680    -0.72900
O1228       O  0.98973802  0.71095446  0.46834604    -0.72900
O1229       O  0.04362267  0.71505510  0.47429885    -0.72800
O1230       O  0.98557896  0.71608614  0.52151422    -0.72900
Ni1231     Ni  0.01101884  0.76246563  0.49278169     1.25400
Ni1232     Ni  0.01467755  0.71402681  0.49798451     1.25400
C1233       C  0.97408549  0.73891818  0.52595197     0.89400
C1234       C  0.05244593  0.73768551  0.46587675     0.89300
C1235       C  0.98012893  0.73216904  0.45643072     0.89300
C1236       C  0.04435806  0.74511292  0.53583532     0.89500
O1237       O  0.76435756  0.53818495  0.03889799    -0.72800
O1238       O  0.79996268  0.48870922  0.99223410    -0.72900
O1239       O  0.78395693  0.54138172  0.98898596    -0.72900
O1240       O  0.78058674  0.48601007  0.04204385    -0.73000
O1241       O  0.73957729  0.47478201  0.02761522    -0.72900
O1242       O  0.74453824  0.52780838  0.97174025    -0.72900
O1243       O  0.75931806  0.47536453  0.97780007    -0.72800
O1244       O  0.72429599  0.52675908  0.02140449    -0.72900
Ni1245     Ni  0.78368272  0.51405670  0.01614477     1.25400
Ni1246     Ni  0.74052792  0.50064127  0.99895601     1.25400
C1247       C  0.73871238  0.54080122  0.03744797     0.89400
C1248       C  0.78495885  0.47349444  0.97777682     0.89300
C1249       C  0.76485702  0.54364754  0.97159429     0.89300
C1250       C  0.75927226  0.47195601  0.04434259     0.89500
O1251       O  0.50179099  0.97778629  0.78819507    -0.72800
O1252       O  0.55734291  0.02945818  0.77917462    -0.72900
O1253       O  0.50326585  0.03001756  0.77440844    -0.72900
O1254       O  0.55606224  0.97610169  0.79288019    -0.73000
O1255       O  0.55988722  0.96677736  0.74908133    -0.72900
O1256       O  0.50614905  0.01696168  0.73140777    -0.72900
O1257       O  0.55973417  0.01920950  0.73556221    -0.72800
O1258       O  0.50619019  0.96497561  0.74567715    -0.72900
Ni1259     Ni  0.52967280  0.00380285  0.78534577     1.25400
Ni1260     Ni  0.53318215  0.99154822  0.73893869     1.25400
C1261       C  0.49405734  0.96340625  0.76815460     0.89400
C1262       C  0.56723923  0.03331404  0.75592895     0.89300
C1263       C  0.49581384  0.03145541  0.74978028     0.89300
C1264       C  0.56617842  0.96244460  0.77353795     0.89500
O1265       O  0.27900505  0.53340486  0.99490002    -0.72800
O1266       O  0.28014312  0.46860243  0.03768367    -0.72900
O1267       O  0.29043150  0.48030687  0.98583979    -0.72900
O1268       O  0.27022892  0.52205610  0.04686645    -0.73000
O1269       O  0.22671282  0.51514291  0.03749679    -0.72900
O1270       O  0.24715308  0.47375015  0.97529125    -0.72900
O1271       O  0.23683118  0.46177568  0.02714703    -0.72800
O1272       O  0.23551217  0.52629282  0.98621468    -0.72900
Ni1273     Ni  0.28155624  0.50125946  0.01671914     1.25400
Ni1274     Ni  0.23503260  0.49389003  0.00617331     1.25400
C1275       C  0.25666776  0.54030014  0.98340680     0.89400
C1276       C  0.25842154  0.45494900  0.03964438     0.89300
C1277       C  0.27227512  0.47024338  0.97048842     0.89300
C1278       C  0.24536613  0.52622835  0.05170431     0.89500
O1279       O  0.51491925  0.02115372  0.28839770    -0.72800
O1280       O  0.47613355  0.95587762  0.29537498    -0.72900
O1281       O  0.52907985  0.96820372  0.28801213    -0.72900
O1282       O  0.46242440  0.00931490  0.29386949    -0.73000
O1283       O  0.45785841  0.00731085  0.24927043    -0.72900
O1284       O  0.52124847  0.96484310  0.24422083    -0.72900
O1285       O  0.46858928  0.95401600  0.25106809    -0.72800
O1286       O  0.51024753  0.01874287  0.24374758    -0.72900
Ni1287     Ni  0.49578740  0.98856393  0.29309587     1.25400
Ni1288     Ni  0.48931254  0.98609691  0.24552781     1.25400
C1289       C  0.51945996  0.03033005  0.26504452     0.89400
C1290       C  0.46522163  0.94480048  0.27478086     0.89300
C1291       C  0.53671438  0.96070968  0.26451472     0.89300
C1292       C  0.44967985  0.01554772  0.27200356     0.89500
C1293       C  0.39954189  0.72321129  0.57398727    -0.03700
C1294       C  0.41403978  0.70472205  0.59061361    -0.00900
C1295       C  0.40624137  0.70114912  0.61711849     0.04100
C1296       C  0.38361477  0.71546676  0.62653994    -0.03700
C1297       C  0.36949940  0.73439307  0.61010667    -0.00800
C1298       C  0.37781668  0.73857907  0.58394163     0.04100
C1299       C  0.43640733  0.68859082  0.58065893     0.38800
C1300       C  0.34592828  0.74925995  0.61944034     0.38800
C1301       C  0.36450486  0.75970304  0.56805707     0.37200
C1302       C  0.42168408  0.68300651  0.63476444     0.37200
N1303       N  0.35352255  0.77737687  0.55689191    -0.37600
N1304       N  0.43407044  0.66860723  0.64875298    -0.37600
N1305       N  0.32722609  0.76168044  0.62607179    -0.37100
N1306       N  0.45401775  0.67485330  0.57354718    -0.37100
C1307       C  0.47244956  0.60747925  0.73691448    -0.03700
C1308       C  0.45258895  0.59099339  0.72411610    -0.00900
C1309       C  0.42623087  0.60152049  0.71862913     0.04100
C1310       C  0.41981273  0.62910020  0.72381939    -0.03700
C1311       C  0.44025904  0.64619447  0.73364650    -0.00800
C1312       C  0.46555218  0.63529620  0.74184753     0.04100
C1313       C  0.45893161  0.56295350  0.71722106     0.38800
C1314       C  0.43531513  0.67532234  0.73565574     0.38800
C1315       C  0.48221944  0.65242912  0.75873679     0.37200
C1316       C  0.40569938  0.58442813  0.70671965     0.37200
N1317       N  0.49328670  0.66729808  0.77305441    -0.37600
N1318       N  0.38876427  0.57156365  0.69704666    -0.37600
N1319       N  0.43211475  0.69868441  0.73673396    -0.37100
N1320       N  0.46394769  0.54049996  0.71191073    -0.37100
C1321       C  0.57160367  0.59424418  0.73342383    -0.03700
C1322       C  0.57730606  0.59241485  0.70589288    -0.00900
C1323       C  0.60026824  0.60484000  0.69572763     0.04100
C1324       C  0.61688492  0.62088000  0.71282143    -0.03700
C1325       C  0.61261840  0.62022621  0.74090793    -0.00800
C1326       C  0.59072653  0.60579404  0.75117942     0.04100
C1327       C  0.55939648  0.57810888  0.68760855     0.38800
C1328       C  0.62954584  0.63550023  0.75943543     0.38800
C1329       C  0.58729962  0.60452195  0.77998609     0.37200
C1330       C  0.60646348  0.60080732  0.66755099     0.37200
N1331       N  0.58541654  0.60429466  0.80311243    -0.37600
N1332       N  0.61129831  0.59748219  0.64511506    -0.37600
N1333       N  0.64283967  0.64769483  0.77436936    -0.37100
N1334       N  0.54585908  0.56677683  0.67224082    -0.37100
C1335       C  0.29456194  0.55678186  0.63777327    -0.03700
C1336       C  0.28347652  0.56417841  0.66289773    -0.00900
C1337       C  0.29188663  0.58797277  0.67682936     0.04100
C1338       C  0.31362223  0.60381208  0.66765770    -0.03700
C1339       C  0.32320912  0.59781628  0.64144448    -0.00800
C1340       C  0.31342887  0.57481265  0.62660799     0.04100
C1341       C  0.26183040  0.54859441  0.67411201     0.38800
C1342       C  0.34301317  0.61520325  0.62939600     0.38800
C1343       C  0.32328148  0.56919107  0.59992653     0.37200
C1344       C  0.27652733  0.59721664  0.69978204     0.37200
N1345       N  0.33101519  0.56439329  0.57862388    -0.37600
N1346       N  0.26397199  0.60483119  0.71774071    -0.37600
N1347       N  0.35858087  0.62918865  0.61948093    -0.37100
N1348       N  0.24370109  0.53785076  0.68359219    -0.37100
C1349       C  0.57668923  0.35059070  0.74762174    -0.03700
C1350       C  0.58524823  0.32364120  0.74272592    -0.00900
C1351       C  0.60000317  0.31788143  0.71992995     0.04100
C1352       C  0.61564910  0.33844362  0.70859516    -0.03700
C1353       C  0.61135768  0.36576746  0.71676439    -0.00800
C1354       C  0.59027404  0.37202618  0.73469421     0.04100
C1355       C  0.58006135  0.30167452  0.76116056     0.38800
C1356       C  0.62884436  0.38702360  0.70759743     0.38800
C1357       C  0.58268871  0.40018912  0.73960643     0.37200
C1358       C  0.60045447  0.29031112  0.70915472     0.37200
N1359       N  0.57683516  0.42274530  0.74351545    -0.37600
N1360       N  0.60089585  0.26852775  0.70023576    -0.37600
N1361       N  0.64313904  0.40391368  0.70059957    -0.37100
N1362       N  0.57770929  0.28327496  0.77541247    -0.37100
C1363       C  0.74866203  0.43790510  0.61402226    -0.03700
C1364       C  0.75995983  0.42926778  0.63896833    -0.00900
C1365       C  0.75069980  0.40545192  0.65172252     0.04100
C1366       C  0.73006816  0.38985771  0.63982004    -0.03700
C1367       C  0.71874138  0.39823665  0.61502096    -0.00800
C1368       C  0.72797627  0.42198073  0.60213262     0.04100
C1369       C  0.78163618  0.44435996  0.65150101     0.38800
C1370       C  0.69766127  0.38205907  0.60254629     0.38800
C1371       C  0.71469356  0.43046249  0.57741168     0.37200
C1372       C  0.76255846  0.39668686  0.67714948     0.37200
N1373       N  0.70254353  0.43657421  0.55829780    -0.37600
N1374       N  0.77183472  0.38959885  0.69746910    -0.37600
N1375       N  0.68082755  0.36920194  0.59263986    -0.37100
N1376       N  0.79911216  0.45574133  0.66205636    -0.37100
C1377       C  0.74509310  0.53776823  0.59887344    -0.03700
C1378       C  0.76311915  0.55902974  0.60486819    -0.00900
C1379       C  0.75329635  0.58588749  0.60747148     0.04100
C1380       C  0.72530793  0.59104992  0.60633864    -0.03700
C1381       C  0.70853237  0.57114171  0.59465177    -0.00800
C1382       C  0.71811620  0.54426940  0.59186863     0.04100
C1383       C  0.79153911  0.55355439  0.60936748     0.38800
C1384       C  0.68192533  0.57861099  0.58438130     0.38800
C1385       C  0.70018210  0.52380990  0.58106375     0.37200
C1386       C  0.77200916  0.60823602  0.60924086     0.37200
N1387       N  0.68532167  0.50844073  0.57158740    -0.37600
N1388       N  0.78697723  0.62610004  0.60959118    -0.37600
N1389       N  0.66090262  0.58474543  0.57586525    -0.37100
N1390       N  0.81431464  0.54996710  0.61334767    -0.37100
C1391       C  0.64989703  0.26330038  0.55696823    -0.03700
C1392       C  0.67545078  0.25327981  0.56479505    -0.00900
C1393       C  0.68891491  0.26480293  0.58678299     0.04100
C1394       C  0.67728302  0.28736933  0.60039963    -0.03700
C1395       C  0.65030101  0.29533910  0.59421357    -0.00800
C1396       C  0.63655163  0.28298155  0.57272108     0.04100
C1397       C  0.68814233  0.23096715  0.55036771     0.38800
C1398       C  0.63660172  0.31693516  0.60891940     0.38800
C1399       C  0.60988971  0.29313099  0.56522278     0.37200
C1400       C  0.71440533  0.25258889  0.59553379     0.37200
N1401       N  0.58897835  0.30242516  0.55984806    -0.37600
N1402       N  0.73466477  0.24275098  0.60238733    -0.37600
N1403       N  0.62537416  0.33394201  0.62055929    -0.37100
N1404       N  0.69873703  0.21282814  0.53984799    -0.37100
C1405       C  0.73713193  0.53037994  0.34984811    -0.03700
C1406       C  0.75429935  0.54723885  0.33526190    -0.00900
C1407       C  0.74346223  0.57010018  0.32187391     0.04100
C1408       C  0.71644017  0.57841152  0.32632512    -0.03700
C1409       C  0.70063397  0.56379957  0.34444702    -0.00800
C1410       C  0.71058012  0.53926632  0.35532290     0.04100
C1411       C  0.78235820  0.53971114  0.33159970     0.38800
C1412       C  0.67370377  0.57311583  0.35107804     0.38800
C1413       C  0.69365364  0.52376904  0.37298364     0.37200
C1414       C  0.75994378  0.58384329  0.30239694     0.37200
N1415       N  0.68022561  0.51257212  0.38806916    -0.37600
N1416       N  0.77316930  0.59401687  0.28643465    -0.37600
N1417       N  0.65224218  0.58039432  0.35658209    -0.37100
N1418       N  0.80474088  0.53410109  0.32823119    -0.37100
C1419       C  0.64360100  0.70437314  0.44233374    -0.03700
C1420       C  0.64764650  0.72307882  0.42122030    -0.00900
C1421       C  0.65117160  0.71354094  0.39505664     0.04100
C1422       C  0.65714084  0.68584015  0.39061287    -0.03700
C1423       C  0.65382795  0.66690289  0.41137355    -0.00800
C1424       C  0.64491464  0.67602543  0.43661477     0.04100
C1425       C  0.65080663  0.75199292  0.42600200     0.38800
C1426       C  0.66078049  0.63842826  0.40732713     0.38800
C1427       C  0.63587385  0.65604861  0.45566620     0.37200
C1428       C  0.64876578  0.73235302  0.37259919     0.37200
N1429       N  0.62793929  0.63926909  0.46966359    -0.37600
N1430       N  0.64612497  0.74732038  0.35478853    -0.37600
N1431       N  0.66668245  0.61571974  0.40455923    -0.37100
N1432       N  0.65423840  0.77515320  0.42853439    -0.37100
C1433       C  0.64648660  0.71482236  0.54231725    -0.03700
C1434       C  0.67254408  0.71927204  0.55324484    -0.00900
C1435       C  0.68053170  0.70806636  0.57844976     0.04100
C1436       C  0.66274808  0.69161029  0.59338537    -0.03700
C1437       C  0.63556257  0.69004209  0.58376169    -0.00800
C1438       C  0.62767356  0.70139328  0.55855608     0.04100
C1439       C  0.69154622  0.73590667  0.53909599     0.38800
C1440       C  0.61524679  0.67640252  0.59928538     0.38800
C1441       C  0.60031833  0.69753055  0.54872809     0.37200
C1442       C  0.70739356  0.71389940  0.58856386     0.37200
N1443       N  0.57839971  0.69425681  0.54131674    -0.37600
N1444       N  0.72890755  0.71899351  0.59606311    -0.37600
N1445       N  0.59893702  0.66553116  0.61151199    -0.37100
N1446       N  0.70757106  0.74934998  0.52920655    -0.37100
C1447       C  0.56162897  0.60545428  0.26097908    -0.03700
C1448       C  0.57955439  0.58822012  0.27586882    -0.00900
C1449       C  0.60644371  0.59626611  0.28172496     0.04100
C1450       C  0.61520084  0.62290812  0.27588313    -0.03700
C1451       C  0.59728150  0.64042524  0.26185399    -0.00800
C1452       C  0.57158672  0.63125989  0.25301369     0.04100
C1453       C  0.57062331  0.56231264  0.28606306     0.38800
C1454       C  0.60615881  0.66744116  0.25470251     0.38800
C1455       C  0.55748096  0.64735559  0.23288907     0.37200
C1456       C  0.62537667  0.57644387  0.29276901     0.37200
N1457       N  0.54825369  0.66067888  0.21586483    -0.37600
N1458       N  0.64015360  0.55989884  0.30085930    -0.37600
N1459       N  0.61345143  0.68884077  0.24870984    -0.37100
N1460       N  0.56433052  0.54172146  0.29518250    -0.37100
C1461       C  0.31998037  0.40051096  0.62807239    -0.03700
C1462       C  0.29215003  0.40752293  0.62887173    -0.00900
C1463       C  0.28368548  0.43506072  0.62796113     0.04100
C1464       C  0.30229741  0.45586251  0.62289759    -0.03700
C1465       C  0.32941163  0.44854816  0.61825470    -0.00800
C1466       C  0.33831700  0.42125720  0.62110466     0.04100
C1467       C  0.27169603  0.38665158  0.62890007     0.38800
C1468       C  0.34813596  0.46841557  0.60840241     0.38800
C1469       C  0.36630282  0.41479781  0.61549287     0.37200
C1470       C  0.25561067  0.44170573  0.63255117     0.37200
N1471       N  0.38859238  0.40982991  0.61088608    -0.37600
N1472       N  0.23311372  0.44631779  0.63644422    -0.37600
N1473       N  0.36382184  0.48281846  0.59932982    -0.37100
N1474       N  0.25518706  0.37022163  0.62823162    -0.37100
C1475       C  0.43248384  0.32628962  0.71336663    -0.03700
C1476       C  0.44878104  0.34514228  0.70005875    -0.00900
C1477       C  0.47193876  0.35518507  0.71293070     0.04100
C1478       C  0.47853352  0.34724262  0.73953224    -0.03700
C1479       C  0.46162584  0.32935545  0.75320058    -0.00800
C1480       C  0.43959154  0.31782039  0.73968552     0.04100
C1481       C  0.44144056  0.35518508  0.67344205     0.38800
C1482       C  0.46662832  0.32234262  0.78112668     0.38800
C1483       C  0.42491410  0.29650698  0.75287162     0.37200
C1484       C  0.48802966  0.37458266  0.69863543     0.37200
N1485       N  0.41361547  0.27955451  0.76390369    -0.37600
N1486       N  0.49950212  0.39017604  0.68588937    -0.37600
N1487       N  0.46954047  0.31603513  0.80337106    -0.37100
N1488       N  0.43566581  0.36327048  0.65227476    -0.37100
C1489       C  0.38904922  0.71152018  0.42021073    -0.03700
C1490       C  0.38665267  0.73867118  0.42996483    -0.00900
C1491       C  0.39397809  0.74478846  0.45681900     0.04100
C1492       C  0.40069422  0.72355866  0.47497852    -0.03700
C1493       C  0.40295138  0.69664560  0.46532115    -0.00800
C1494       C  0.39953775  0.69114140  0.43786035     0.04100
C1495       C  0.37676417  0.76058263  0.41278425     0.38800
C1496       C  0.41107164  0.67435546  0.48281702     0.38800
C1497       C  0.40848165  0.66461684  0.42804371     0.37200
C1498       C  0.39443238  0.77300646  0.46557721     0.37200
N1499       N  0.41600177  0.64357772  0.42047964    -0.37600
N1500       N  0.39473140  0.79565763  0.47211707    -0.37600
N1501       N  0.41841545  0.65547916  0.49486014    -0.37100
N1502       N  0.36874191  0.77817530  0.39929504    -0.37100
C1503       C  0.41384789  0.62901152  0.27950165    -0.03700
C1504       C  0.42482967  0.60563004  0.29218376    -0.00900
C1505       C  0.45051179  0.59677578  0.28512575     0.04100
C1506       C  0.46095321  0.60494249  0.26034013    -0.03700
C1507       C  0.44557303  0.62257038  0.24363445    -0.00800
C1508       C  0.42415798  0.63746969  0.25477981     0.04100
C1509       C  0.41110301  0.59270499  0.31427322     0.38800
C1510       C  0.45215727  0.62643489  0.21575786     0.38800
C1511       C  0.41640868  0.66348338  0.24315965     0.37200
C1512       C  0.46669826  0.58242763  0.30507517     0.37200
N1513       N  0.41146240  0.68472633  0.23414943    -0.37600
N1514       N  0.47859526  0.57153813  0.32219043    -0.37600
N1515       N  0.45657671  0.62994329  0.19330215    -0.37100
N1516       N  0.40006803  0.58225822  0.33167686    -0.37100
C1517       C  0.65223754  0.28378983  0.40518152    -0.03700
C1518       C  0.64849905  0.30296404  0.42622407    -0.00900
C1519       C  0.64102367  0.29434289  0.45194371     0.04100
C1520       C  0.63986578  0.26634353  0.45826020    -0.03700
C1521       C  0.64399356  0.24704309  0.43753598    -0.00800
C1522       C  0.64920881  0.25579796  0.41101151     0.04100
C1523       C  0.65191471  0.33201170  0.42192007     0.38800
C1524       C  0.64272578  0.21812909  0.44319994     0.38800
C1525       C  0.64906041  0.23607738  0.38946505     0.37200
C1526       C  0.63141764  0.31474369  0.47070396     0.37200
N1527       N  0.64797426  0.22012267  0.37241734    -0.37600
N1528       N  0.62247458  0.33179243  0.48406713    -0.37600
N1529       N  0.64199336  0.19494790  0.44736293    -0.37100
N1530       N  0.65422050  0.35532670  0.41949589    -0.37100
C1531       C  0.70346768  0.39123670  0.37798466    -0.03700
C1532       C  0.68609113  0.41044164  0.36547145    -0.00900
C1533       C  0.69120628  0.43812013  0.36966297     0.04100
C1534       C  0.71505981  0.44483157  0.38360545    -0.03700
C1535       C  0.72273320  0.42682037  0.40446944    -0.00800
C1536       C  0.71903752  0.39898331  0.40027642     0.04100
C1537       C  0.66503408  0.40210669  0.34680820     0.38800
C1538       C  0.72851926  0.43697721  0.43115617     0.38800
C1539       C  0.73018778  0.37880002  0.41866348     0.37200
C1540       C  0.67226429  0.45861456  0.35997656     0.37200
N1541       N  0.73883321  0.36243920  0.43324763    -0.37600
N1542       N  0.65644026  0.47405811  0.35163337    -0.37600
N1543       N  0.73246107  0.44460065  0.45284339    -0.37100
N1544       N  0.64821534  0.39585000  0.33176905    -0.37100
C1545       C  0.55533599  0.32803716  0.26628810    -0.03700
C1546       C  0.55473236  0.33319137  0.29425281    -0.00900
C1547       C  0.57587768  0.32397571  0.31080445     0.04100
C1548       C  0.59887745  0.31248456  0.29914690    -0.03700
C1549       C  0.59926650  0.30639962  0.27152134    -0.00800
C1550       C  0.57725636  0.31380810  0.25505593     0.04100
C1551       C  0.53616805  0.35313241  0.30529306     0.38800
C1552       C  0.62336705  0.29527917  0.25956414     0.38800
C1553       C  0.57815103  0.30835479  0.22644196     0.37200
C1554       C  0.57521488  0.32869276  0.33963577     0.37200
N1555       N  0.57924413  0.30394357  0.20364891    -0.37600
N1556       N  0.57485286  0.33245956  0.36257533    -0.37600
N1557       N  0.64282266  0.28709777  0.24986522    -0.37100
N1558       N  0.52325195  0.37028770  0.31478015    -0.37100
C1559       C  0.46289501  0.34170412  0.23302278    -0.03700
C1560       C  0.45184197  0.31609783  0.22712228    -0.00900
C1561       C  0.42810993  0.30857134  0.23946768     0.04100
C1562       C  0.41441745  0.32776863  0.25549926    -0.03700
C1563       C  0.42240897  0.35513476  0.25631036    -0.00800
C1564       C  0.44719473  0.36209650  0.24549429     0.04100
C1565       C  0.46580066  0.29658026  0.21029144     0.38800
C1566       C  0.40604123  0.37574660  0.26950385     0.38800
C1567       C  0.45778367  0.38893493  0.25101762     0.37200
C1568       C  0.41948693  0.28038405  0.23784977     0.37200
N1569       N  0.46532422  0.41043191  0.25667431    -0.37600
N1570       N  0.41270398  0.25792200  0.23661515    -0.37600
N1571       N  0.39328473  0.39256201  0.27976727    -0.37100
N1572       N  0.47594857  0.28049133  0.19663163    -0.37100
C1573       C  0.31557913  0.54927674  0.35690023    -0.03700
C1574       C  0.33159114  0.56233489  0.37655246    -0.00900
C1575       C  0.33879716  0.58944114  0.37300092     0.04100
C1576       C  0.33568936  0.60141128  0.34734877    -0.03700
C1577       C  0.32187102  0.58706201  0.32661872    -0.00800
C1578       C  0.30978434  0.56223880  0.33231228     0.04100
C1579       C  0.34360868  0.54733955  0.39885632     0.38800
C1580       C  0.32112083  0.59642618  0.29891141     0.38800
C1581       C  0.29144324  0.55069211  0.31256562     0.37200
C1582       C  0.34901709  0.60463698  0.39599210     0.37200
N1583       N  0.27661207  0.54334074  0.29601206    -0.37600
N1584       N  0.35673031  0.61661304  0.41456421    -0.37600
N1585       N  0.32055253  0.60315933  0.27664770    -0.37100
N1586       N  0.35467768  0.53594424  0.41618442    -0.37100
C1587       C  0.34348060  0.40168331  0.34041458    -0.03700
C1588       C  0.35928099  0.41993781  0.35531479    -0.00900
C1589       C  0.34791237  0.44479861  0.36378375     0.04100
C1590       C  0.32011324  0.45020185  0.35921053    -0.03700
C1591       C  0.30427146  0.43126492  0.34519593    -0.00800
C1592       C  0.31655238  0.40838023  0.33366547     0.04100
C1593       C  0.38707736  0.41299488  0.36190873     0.38800
C1594       C  0.27526643  0.43437110  0.34352394     0.38800
C1595       C  0.30146493  0.39231861  0.31428633     0.37200
C1596       C  0.36426201  0.46350485  0.37941680     0.37200
N1597       N  0.28895910  0.38081258  0.29817432    -0.37600
N1598       N  0.37745022  0.47764131  0.39263016    -0.37600
N1599       N  0.25202245  0.43588652  0.34234460    -0.37100
N1600       N  0.40927412  0.40747888  0.36707000    -0.37100
C1601       C  0.36978171  0.26845158  0.54005405    -0.03700
C1602       C  0.36619223  0.29715289  0.54412854    -0.00900
C1603       C  0.35942663  0.30810994  0.56964811     0.04100
C1604       C  0.35725339  0.29128746  0.59241452    -0.03700
C1605       C  0.36146617  0.26300812  0.58900615    -0.00800
C1606       C  0.36683093  0.25159836  0.56316235     0.04100
C1607       C  0.36833614  0.31633292  0.52226994     0.38800
C1608       C  0.36122779  0.24557152  0.61239632     0.38800
C1609       C  0.36704516  0.22224199  0.56066098     0.37200
C1610       C  0.35452151  0.33725064  0.57248457     0.37200
N1611       N  0.36622576  0.19869694  0.56012291    -0.37600
N1612       N  0.35055094  0.36045410  0.57450959    -0.37600
N1613       N  0.36157760  0.23150757  0.63100223    -0.37100
N1614       N  0.36831178  0.33315883  0.50604020    -0.37100
C1615       C  0.37895157  0.26716529  0.43996716    -0.03700
C1616       C  0.38870173  0.29384178  0.43585322    -0.00900
C1617       C  0.38727431  0.30562077  0.41006156     0.04100
C1618       C  0.37868539  0.29000805  0.38795242    -0.03700
C1619       C  0.37532950  0.26189523  0.39118073    -0.00800
C1620       C  0.37308934  0.25086351  0.41712240     0.04100
C1621       C  0.40064392  0.30922486  0.45764702     0.38800
C1622       C  0.37431625  0.24461743  0.36760899     0.38800
C1623       C  0.36015485  0.22481379  0.41985252     0.37200
C1624       C  0.39375137  0.33406405  0.40630148     0.37200
N1625       N  0.34840679  0.20465198  0.42100629    -0.37600
N1626       N  0.39906068  0.35675002  0.40340384    -0.37600
N1627       N  0.37486046  0.23089695  0.34869733    -0.37100
N1628       N  0.41145836  0.32194085  0.47404938    -0.37100
C1629       C  0.31586104  0.68124690  0.52877313    -0.03700
C1630       C  0.33992206  0.66602942  0.53345613    -0.00900
C1631       C  0.36527332  0.67904191  0.53382352     0.04100
C1632       C  0.36783791  0.70624735  0.52460600    -0.03700
C1633       C  0.34396608  0.72081416  0.51803067    -0.00800
C1634       C  0.31848966  0.70953013  0.52315715     0.04100
C1635       C  0.33933239  0.63669989  0.53677118     0.38800
C1636       C  0.34510751  0.74783374  0.50656081     0.38800
C1637       C  0.29533619  0.72779579  0.52424365     0.37200
C1638       C  0.38835989  0.66343038  0.54323047     0.37200
N1639       N  0.27698488  0.74252723  0.52509162    -0.37600
N1640       N  0.40542074  0.64898058  0.55078158    -0.37600
N1641       N  0.34467558  0.76952175  0.49746801    -0.37100
N1642       N  0.33946252  0.61324822  0.53929109    -0.37100
C1643       C  0.24084307  0.58970690  0.55027496    -0.03700
C1644       C  0.24804238  0.59342253  0.57764141    -0.00900
C1645       C  0.25128837  0.57029571  0.59464992     0.04100
C1646       C  0.25838503  0.54426486  0.58378412    -0.03700
C1647       C  0.25141353  0.54102799  0.55619093    -0.00800
C1648       C  0.23714367  0.56203978  0.54261002     0.04100
C1649       C  0.24952921  0.62037944  0.58934929     0.38800
C1650       C  0.26042908  0.51871110  0.53966694     0.38800
C1651       C  0.21545814  0.55423895  0.52442205     0.37200
C1652       C  0.23697159  0.57164927  0.61956765     0.37200
N1653       N  0.19809876  0.54785417  0.51005924    -0.37600
N1654       N  0.22340622  0.57382147  0.63812565    -0.37600
N1655       N  0.26717416  0.50248131  0.52419860    -0.37100
N1656       N  0.25100477  0.64186356  0.59886952    -0.37100
C1657       C  0.26094969  0.57436258  0.43987806    -0.03700
C1658       C  0.28253046  0.55643400  0.44662390    -0.00900
C1659       C  0.28878920  0.53423982  0.42986973     0.04100
C1660       C  0.27845283  0.53340036  0.40330737    -0.03700
C1661       C  0.25918700  0.55334329  0.39515252    -0.00800
C1662       C  0.24911207  0.57242742  0.41387707     0.04100
C1663       C  0.29968913  0.56174318  0.46986764     0.38800
C1664       C  0.24882340  0.55394792  0.36779833     0.38800
C1665       C  0.22603450  0.58926873  0.40634810     0.37200
C1666       C  0.30640506  0.51287065  0.44029776     0.37200
N1667       N  0.20755490  0.60255115  0.40013625    -0.37600
N1668       N  0.32048271  0.49638084  0.44967404    -0.37600
N1669       N  0.23996347  0.55508771  0.34619425    -0.37100
N1670       N  0.31354468  0.56601031  0.48826914    -0.37100
C1671       C  0.72847593  0.66355955  0.48884730    -0.03700
C1672       C  0.72509755  0.69120346  0.47982070    -0.00900
C1673       C  0.69987775  0.70511013  0.48113093     0.04100
C1674       C  0.67736947  0.69307226  0.49271712    -0.03700
C1675       C  0.68064617  0.66673571  0.50373457    -0.00800
C1676       C  0.70517620  0.65157357  0.50060007     0.04100
C1677       C  0.74694741  0.70689806  0.46934416     0.38800
C1678       C  0.65865727  0.65495621  0.51834611     0.38800
C1679       C  0.70503790  0.62320263  0.50857888     0.37200
C1680       C  0.69763858  0.73329703  0.47247293     0.37200
N1681       N  0.70397460  0.60067957  0.51535254    -0.37600
N1682       N  0.69674883  0.75605990  0.46646635    -0.37600
N1683       N  0.64138840  0.64512282  0.53010305    -0.37100
N1684       N  0.76264806  0.72118580  0.46012482    -0.37100
C1685       C  0.81405115  0.55477038  0.41382873    -0.03700
C1686       C  0.82614548  0.53226144  0.40143282    -0.00900
C1687       C  0.80980848  0.51304165  0.38848859     0.04100
C1688       C  0.78155056  0.51595282  0.39006129    -0.03700
C1689       C  0.76994325  0.53896182  0.40257753    -0.00800
C1690       C  0.78634903  0.55986493  0.41114240     0.04100
C1691       C  0.85513539  0.52922013  0.40233234     0.38800
C1692       C  0.74245304  0.53921241  0.41187679     0.38800
C1693       C  0.77452207  0.58540124  0.42028089     0.37200
C1694       C  0.82189743  0.48993568  0.37485521     0.37200
N1695       N  0.76476896  0.60578072  0.42701445    -0.37600
N1696       N  0.83161492  0.47142611  0.36412107    -0.37600
N1697       N  0.72145339  0.54033230  0.42153360    -0.37100
N1698       N  0.87835440  0.52708720  0.40284756    -0.37100
C1699       C  0.79987063  0.56874172  0.52034728    -0.03700
C1700       C  0.81782224  0.55218170  0.53659614    -0.00900
C1701       C  0.80901262  0.52856053  0.55187718     0.04100
C1702       C  0.78161966  0.51984031  0.55222436    -0.03700
C1703       C  0.76466016  0.53412803  0.53330633    -0.00800
C1704       C  0.77384609  0.55668562  0.51702045     0.04100
C1705       C  0.84627743  0.55802074  0.53617448     0.38800
C1706       C  0.73767277  0.52450138  0.52849518     0.38800
C1707       C  0.75698763  0.56517587  0.49451179     0.37200
C1708       C  0.82889756  0.51270902  0.56674702     0.37200
N1709       N  0.74334508  0.57118225  0.47636619    -0.37600
N1710       N  0.84547475  0.50048931  0.57822000    -0.37600
N1711       N  0.71605969  0.51765932  0.52310067    -0.37100
N1712       N  0.86909342  0.56240348  0.53558452    -0.37100
C1713       C  0.82554230  0.71868734  0.34985440    -0.03700
C1714       C  0.81475521  0.69297414  0.34289207    -0.00900
C1715       C  0.78897658  0.69100830  0.32996018     0.04100
C1716       C  0.77265475  0.71443900  0.32516990    -0.03700
C1717       C  0.78218558  0.73964061  0.33550921    -0.00800
C1718       C  0.80856783  0.74188314  0.34660274     0.04100
C1719       C  0.82990570  0.66833962  0.34900472     0.38800
C1720       C  0.76414684  0.76306210  0.33690961     0.38800
C1721       C  0.81793238  0.76822173  0.35577835     0.37200
C1722       C  0.77822017  0.66448173  0.32379826     0.37200
N1723       N  0.82500642  0.78934834  0.36323876    -0.37600
N1724       N  0.76946867  0.64320777  0.31939743    -0.37600
N1725       N  0.74963003  0.78153407  0.33914324    -0.37100
N1726       N  0.84133098  0.64813204  0.35355428    -0.37100
C1727       C  0.85808991  0.69566940  0.40239359    -0.03700
C1728       C  0.83720027  0.70272783  0.42064604    -0.00900
C1729       C  0.83030098  0.68533997  0.44291176     0.04100
C1730       C  0.84011477  0.65805176  0.44548972    -0.03700
C1731       C  0.86323162  0.65252823  0.42935968    -0.00800
C1732       C  0.87103380  0.67011090  0.40768431     0.04100
C1733       C  0.82254193  0.72812052  0.41713026     0.38800
C1734       C  0.88128905  0.63023824  0.43667146     0.38800
C1735       C  0.89130493  0.66033836  0.38937915     0.37200
C1736       C  0.81906295  0.69778717  0.46656890     0.37200
N1737       N  0.90676512  0.65145396  0.37450938    -0.37600
N1738       N  0.81164016  0.70767457  0.48626326    -0.37600
N1739       N  0.89601678  0.61265415  0.44242425    -0.37100
N1740       N  0.81025155  0.74819202  0.41478081    -0.37100
C1741       C  0.92065619  0.75965438  0.34234174    -0.03700
C1742       C  0.93060589  0.78298769  0.35627912    -0.00900
C1743       C  0.95154408  0.79996479  0.34578386     0.04100
C1744       C  0.96184750  0.79701357  0.31913396    -0.03700
C1745       C  0.95418885  0.77180211  0.30659953    -0.00800
C1746       C  0.93360140  0.75424380  0.31743373     0.04100
C1747       C  0.91733272  0.79220929  0.38029820     0.38800
C1748       C  0.97041303  0.76078686  0.28529985     0.38800
C1749       C  0.92652524  0.72961077  0.30303834     0.37200
C1750       C  0.96341361  0.82002544  0.36366730     0.37200
N1751       N  0.92116914  0.70992253  0.29139595    -0.37600
N1752       N  0.97295160  0.83589701  0.37804544    -0.37600
N1753       N  0.98319117  0.75061163  0.26874247    -0.37100
N1754       N  0.90688685  0.80150430  0.39882963    -0.37100
C1755       C  0.91533142  0.72619635  0.39869409    -0.03700
C1756       C  0.91237167  0.74199654  0.42210656    -0.00900
C1757       C  0.93482125  0.74644301  0.43890574     0.04100
C1758       C  0.95799956  0.72963002  0.43647756    -0.03700
C1759       C  0.95923552  0.71051516  0.41533050    -0.00800
C1760       C  0.93951823  0.71141277  0.39473650     0.04100
C1761       C  0.88685240  0.75487014  0.42852736     0.38800
C1762       C  0.98015528  0.68969757  0.41483612     0.38800
C1763       C  0.94472691  0.69791106  0.36941766     0.37200
C1764       C  0.93375376  0.76837326  0.45854378     0.37200
N1765       N  0.94947047  0.68739516  0.34919057    -0.37600
N1766       N  0.93286565  0.78608959  0.47390342    -0.37600
N1767       N  0.99623586  0.67242007  0.41475915    -0.37100
N1768       N  0.86699778  0.76566805  0.43447786    -0.37100
C1769       C  0.83717647  0.72914197  0.63501741    -0.03700
C1770       C  0.81275970  0.74414970  0.63549336    -0.00900
C1771       C  0.78881794  0.73115723  0.64192335     0.04100
C1772       C  0.78922683  0.70316307  0.64782423    -0.03700
C1773       C  0.81334803  0.68807144  0.64780944    -0.00800
C1774       C  0.83731327  0.70085687  0.64092095     0.04100
C1775       C  0.81180764  0.77255857  0.62757511     0.38800
C1776       C  0.81368750  0.65966421  0.65607778     0.38800
C1777       C  0.86172785  0.68450663  0.64075002     0.37200
C1778       C  0.76382571  0.74675762  0.64334311     0.37200
N1779       N  0.88028182  0.67000918  0.64138503    -0.37600
N1780       N  0.74390243  0.75913172  0.64462766    -0.37600
N1781       N  0.81423493  0.63711603  0.66289733    -0.37100
N1782       N  0.81025181  0.79503246  0.62065216    -0.37100
C1783       C  0.86941743  0.71420138  0.58624417    -0.03700
C1784       C  0.84379902  0.71160917  0.57352908    -0.00900
C1785       C  0.83729116  0.68765661  0.55951733     0.04100
C1786       C  0.85694462  0.66737006  0.55567986    -0.03700
C1787       C  0.88244152  0.66968711  0.56774666    -0.00800
C1788       C  0.88860982  0.69268069  0.58355224     0.04100
C1789       C  0.82446278  0.73393320  0.57298996     0.38800
C1790       C  0.90206408  0.64794774  0.56402917     0.38800
C1791       C  0.91388472  0.69264366  0.59842397     0.37200
C1792       C  0.81043237  0.68376286  0.54839355     0.37200
N1793       N  0.93394054  0.69093288  0.61046349    -0.37600
N1794       N  0.78897863  0.68030570  0.53975772    -0.37600
N1795       N  0.91763107  0.63048354  0.56114769    -0.37100
N1796       N  0.80848309  0.75122552  0.57122714    -0.37100
C1797       C  0.91317300  0.79718164  0.63227066    -0.03700
C1798       C  0.91840639  0.81823654  0.61346000    -0.00900
C1799       C  0.93691276  0.83922027  0.61978077     0.04100
C1800       C  0.94914581  0.84047909  0.64535021    -0.03700
C1801       C  0.94324364  0.82034112  0.66444231    -0.00800
C1802       C  0.92628535  0.79850771  0.65782574     0.04100
C1803       C  0.90419605  0.81917604  0.58786426     0.38800
C1804       C  0.95615711  0.82087017  0.69083077     0.38800
C1805       C  0.92566007  0.77648845  0.67708071     0.37200
C1806       C  0.94360736  0.85955181  0.60003822     0.37200
N1807       N  0.92814391  0.76030313  0.69383177    -0.37600
N1808       N  0.94911590  0.87572531  0.58422870    -0.37600
N1809       N  0.96622464  0.82024642  0.71193736    -0.37100
N1810       N  0.89298317  0.82060255  0.56736375    -0.37100
C1811       C  0.91608474  0.75569538  0.58302683    -0.03700
C1812       C  0.94289980  0.75056796  0.59152141    -0.00900
C1813       C  0.96200853  0.74413984  0.57247609     0.04100
C1814       C  0.95381162  0.74059734  0.54568950    -0.03700
C1815       C  0.92693308  0.74364973  0.53748944    -0.00800
C1816       C  0.90845864  0.75375013  0.55570209     0.04100
C1817       C  0.95083559  0.74832022  0.61960471     0.38800
C1818       C  0.91776186  0.73343501  0.51164865     0.38800
C1819       C  0.88182267  0.76200913  0.54620530     0.37200
C1820       C  0.98975372  0.73956395  0.58099982     0.37200
N1821       N  0.86093161  0.76903813  0.53806171    -0.37600
N1822       N  0.01132948  0.73581277  0.58928328    -0.37600
N1823       N  0.90969697  0.72411243  0.49178420    -0.37100
N1824       N  0.95882952  0.74500068  0.64130277    -0.37100
C1825       C  0.18587528  0.74815319  0.65817145    -0.03700
C1826       C  0.19216615  0.73964451  0.68482130    -0.00900
C1827       C  0.21932343  0.73575994  0.69362125     0.04100
C1828       C  0.24081448  0.73709143  0.67519576    -0.03700
C1829       C  0.23396623  0.74349037  0.64786919    -0.00800
C1830       C  0.20728063  0.75059604  0.64010386     0.04100
C1831       C  0.17073360  0.73410913  0.70332975     0.38800
C1832       C  0.25386061  0.74231971  0.62681180     0.38800
C1833       C  0.20251342  0.76250582  0.61380741     0.37200
C1834       C  0.22478297  0.73116617  0.72196387     0.37200
N1835       N  0.19985921  0.77253778  0.59291313    -0.37600
N1836       N  0.22898152  0.72783012  0.74465778    -0.37600
N1837       N  0.26929058  0.74132208  0.60966377    -0.37100
N1838       N  0.15402306  0.72909035  0.71839521    -0.37100
C1839       C  0.15313178  0.72453646  0.60965214    -0.03700
C1840       C  0.15160186  0.72776944  0.58149479    -0.00900
C1841       C  0.15656381  0.70548364  0.56436286     0.04100
C1842       C  0.17078032  0.68187755  0.57384166    -0.03700
C1843       C  0.17271316  0.67860710  0.60230072    -0.00800
C1844       C  0.16205432  0.69892032  0.61972880     0.04100
C1845       C  0.14687363  0.75433287  0.56947855     0.38800
C1846       C  0.18443069  0.65446511  0.61463690     0.38800
C1847       C  0.15861016  0.69233826  0.64781992     0.37200
C1848       C  0.14493218  0.70653677  0.53744815     0.37200
N1849       N  0.15543442  0.68587986  0.66985687    -0.37600
N1850       N  0.13565115  0.70738691  0.51599247    -0.37600
N1851       N  0.19333141  0.63557291  0.62568836    -0.37100
N1852       N  0.14402387  0.77539474  0.55932064    -0.37100
C1853       C  0.09733437  0.80226446  0.65395891    -0.03700
C1854       C  0.10400915  0.82914586  0.66164863    -0.00900
C1855       C  0.08566522  0.84561665  0.67595305     0.04100
C1856       C  0.05751159  0.84108470  0.67417958    -0.03700
C1857       C  0.05036093  0.81415007  0.66535152    -0.00800
C1858       C  0.07011904  0.79482955  0.65665467     0.04100
C1859       C  0.12958894  0.84081247  0.65490046     0.38800
C1860       C  0.02338874  0.80397388  0.66795855     0.38800
C1861       C  0.06241810  0.76655260  0.65334257     0.37200
C1862       C  0.09718374  0.85978072  0.69876962     0.37200
N1863       N  0.05529847  0.74423905  0.65166983    -0.37600
N1864       N  0.10737231  0.87017609  0.71709525    -0.37600
N1865       N  0.00250555  0.79393003  0.66857697    -0.37100
N1866       N  0.14928809  0.85147723  0.64911935    -0.37100
C1867       C  0.09830739  0.75831843  0.60466397    -0.03700
C1868       C  0.08808701  0.73210028  0.59918799    -0.00900
C1869       C  0.07132632  0.72753790  0.57652512     0.04100
C1870       C  0.06259495  0.74967228  0.55996280    -0.03700
C1871       C  0.07104043  0.77645588  0.56717250    -0.00800
C1872       C  0.08934160  0.78050995  0.58871271     0.04100
C1873       C  0.09357593  0.70981685  0.61772280     0.38800
C1874       C  0.06181512  0.80036664  0.55228968     0.38800
C1875       C  0.10023187  0.80753822  0.59299842     0.37200
C1876       C  0.06255134  0.69987733  0.57127130     0.37200
N1877       N  0.10859395  0.82929672  0.59571735    -0.37600
N1878       N  0.05562563  0.67775791  0.56736632    -0.37600
N1879       N  0.05462671  0.81958134  0.54062349    -0.37100
N1880       N  0.09725839  0.69193653  0.63250785    -0.37100
C1881       C  0.21811510  0.73928276  0.39029883    -0.03700
C1882       C  0.23112934  0.71384286  0.38692680    -0.00900
C1883       C  0.25826366  0.71298776  0.37994563     0.04100
C1884       C  0.27188599  0.73752006  0.37503039    -0.03700
C1885       C  0.26008623  0.76266911  0.38170801    -0.00800
C1886       C  0.23322956  0.76347938  0.38988079     0.04100
C1887       C  0.21679690  0.68846232  0.38962634     0.38800
C1888       C  0.27593215  0.78728173  0.38141635     0.38800
C1889       C  0.22165382  0.78874976  0.39968593     0.37200
C1890       C  0.27188438  0.68671064  0.37776512     0.37200
N1891       N  0.21315702  0.80878498  0.40867038    -0.37600
N1892       N  0.28218210  0.66543315  0.37699889    -0.37600
N1893       N  0.28862920  0.80689976  0.38168535    -0.37100
N1894       N  0.20612958  0.66773597  0.39153774    -0.37100
C1895       C  0.18487755  0.71240215  0.43524442    -0.03700
C1896       C  0.17277178  0.68689776  0.44055382    -0.00900
C1897       C  0.18437345  0.66867875  0.45978265     0.04100
C1898       C  0.21055941  0.67328436  0.47090372    -0.03700
C1899       C  0.22437661  0.69576262  0.46084635    -0.00800
C1900       C  0.20993588  0.71726703  0.44841117     0.04100
C1901       C  0.15024328  0.67728553  0.42461427     0.38800
C1902       C  0.25165098  0.69158778  0.45203740     0.38800
C1903       C  0.22100496  0.74421664  0.45097735     0.37200
C1904       C  0.17011701  0.64388979  0.46617460     0.37200
N1905       N  0.23019990  0.76546765  0.45472086    -0.37600
N1906       N  0.15880597  0.62409333  0.47115498    -0.37600
N1907       N  0.27321424  0.68779771  0.44427974    -0.37100
N1908       N  0.13285796  0.66756041  0.41239119    -0.37100
C1909       C  0.07598350  0.79696863  0.34546808    -0.03700
C1910       C  0.08517989  0.80416796  0.37148031    -0.00900
C1911       C  0.10803981  0.79085823  0.38360818     0.04100
C1912       C  0.12191585  0.76931707  0.37025731    -0.03700
C1913       C  0.11236101  0.76222266  0.34402591    -0.00800
C1914       C  0.08983875  0.77600916  0.33190796     0.04100
C1915       C  0.07077025  0.82529695  0.38586017     0.38800
C1916       C  0.12450856  0.73985023  0.32944331     0.38800
C1917       C  0.08065915  0.76860034  0.30519285     0.37200
C1918       C  0.11809611  0.80064157  0.40927390     0.37200
N1919       N  0.07337753  0.76264621  0.28383012    -0.37600
N1920       N  0.12619464  0.80911080  0.42950545    -0.37600
N1921       N  0.13290400  0.72176791  0.31705365    -0.37100
N1922       N  0.05910526  0.84206341  0.39738961    -0.37100
C1923       C  0.12466831  0.73506848  0.42394697    -0.03700
C1924       C  0.10112019  0.72447631  0.41190088    -0.00900
C1925       C  0.07692691  0.72678025  0.42524105     0.04100
C1926       C  0.07688917  0.73738060  0.45129698    -0.03700
C1927       C  0.10050467  0.74651493  0.46409215    -0.00800
C1928       C  0.12460015  0.74554629  0.45030020     0.04100
C1929       C  0.10160112  0.71063014  0.38612471     0.38800
C1930       C  0.09994325  0.75805496  0.49092255     0.38800
C1931       C  0.14851310  0.75709425  0.46275991     0.37200
C1932       C  0.05195018  0.72056796  0.41122694     0.37200
N1933       N  0.16705816  0.76658227  0.47335989    -0.37600
N1934       N  0.03236510  0.71640106  0.39916110    -0.37600
N1935       N  0.10028632  0.76762944  0.51214211    -0.37100
N1936       N  0.10136860  0.69862487  0.36610841    -0.37100
C1937       C  0.78151356  0.14734026  0.07856155    -0.03700
C1938       C  0.76074181  0.14777293  0.09802776    -0.00900
C1939       C  0.76733392  0.15067819  0.12580895     0.04100
C1940       C  0.79341812  0.15911714  0.13373552    -0.03700
C1941       C  0.81120701  0.16604080  0.11305555    -0.00800
C1942       C  0.80737094  0.15555216  0.08719692     0.04100
C1943       C  0.73273972  0.14546829  0.08991277     0.38800
C1944       C  0.83182425  0.18627693  0.11729367     0.38800
C1945       C  0.83128951  0.14904691  0.07222331     0.37200
C1946       C  0.74742697  0.14440806  0.14567393     0.37200
N1947       N  0.85119872  0.14310226  0.06189151    -0.37600
N1948       N  0.73153255  0.13857111  0.16130541    -0.37600
N1949       N  0.84734808  0.20345927  0.12013466    -0.37100
N1950       N  0.71021104  0.14408619  0.08387174    -0.37100
C1951       C  0.90204979  0.95575040  0.29046844    -0.03700
C1952       C  0.91437742  0.93641771  0.27325419    -0.00900
C1953       C  0.92238431  0.91096051  0.28319595     0.04100
C1954       C  0.92760342  0.90786890  0.31069393    -0.03700
C1955       C  0.91862103  0.92827052  0.32854223    -0.00800
C1956       C  0.90366345  0.95102820  0.31856094     0.04100
C1957       C  0.92222940  0.94352943  0.24632078     0.38800
C1958       C  0.92499923  0.92583230  0.35687651     0.38800
C1959       C  0.88992133  0.96898815  0.33707105     0.37200
C1960       C  0.92671686  0.88816186  0.26517454     0.37200
N1961       N  0.87873908  0.98307042  0.35198132    -0.37600
N1962       N  0.92947914  0.86954414  0.25113158    -0.37600
N1963       N  0.93026444  0.92408339  0.37953346    -0.37100
N1964       N  0.92998770  0.94889266  0.22521891    -0.37100
C1965       C  0.83009280  0.09141481  0.23986356    -0.03700
C1966       C  0.85839370  0.08842845  0.24220269    -0.00900
C1967       C  0.86973356  0.06500293  0.25426546     0.04100
C1968       C  0.85263592  0.04478678  0.26424186    -0.03700
C1969       C  0.82467377  0.05015759  0.26595216    -0.00800
C1970       C  0.81330168  0.07322876  0.25330874     0.04100
C1971       C  0.87601063  0.10914485  0.23175320     0.38800
C1972       C  0.80744526  0.03136817  0.27986256     0.38800
C1973       C  0.78431473  0.07736697  0.25290043     0.37200
C1974       C  0.89861520  0.06040025  0.25305495     0.37200
N1975       N  0.76121192  0.08070790  0.25261687    -0.37600
N1976       N  0.92163561  0.05700393  0.25155936    -0.37600
N1977       N  0.79355400  0.01674238  0.29123158    -0.37100
N1978       N  0.89034967  0.12549020  0.22363841    -0.37100
C1979       C  0.05165218  0.95016135  0.27465026    -0.03700
C1980       C  0.02811757  0.94069436  0.26142519    -0.00900
C1981       C  0.01788441  0.91342050  0.26545478     0.04100
C1982       C  0.02897363  0.89454650  0.28513521    -0.03700
C1983       C  0.04931784  0.90691094  0.30193284    -0.00800
C1984       C  0.06162919  0.93270862  0.29546563     0.04100
C1985       C  0.01435051  0.95920316  0.24301585     0.38800
C1986       C  0.05573955  0.89553154  0.32802010     0.38800
C1987       C  0.08418427  0.94210053  0.31158977     0.37200
C1988       C  0.99498879  0.90573205  0.24913412     0.37200
N1989       N  0.10205400  0.94946864  0.32477866    -0.37600
N1990       N  0.97697893  0.90062146  0.23513716    -0.37600
N1991       N  0.06109028  0.88764745  0.34936628    -0.37100
N1992       N  0.00316194  0.97379439  0.22827798    -0.37100
C1993       C  0.94739658  0.23163775  0.14157023    -0.03700
C1994       C  0.93957768  0.24291830  0.16650502    -0.00900
C1995       C  0.91665625  0.23317289  0.17966017     0.04100
C1996       C  0.90256330  0.21077471  0.16897867    -0.03700
C1997       C  0.91055041  0.19944413  0.14412212    -0.00800
C1998       C  0.93139750  0.21130356  0.12957305     0.04100
C1999       C  0.95510908  0.26431288  0.17911229     0.38800
C2000       C  0.89859216  0.17449267  0.13394398     0.38800
C2001       C  0.93757541  0.20045653  0.10324913     0.37200
C2002       C  0.90888146  0.24479220  0.20525428     0.37200
N2003       N  0.94156135  0.19045098  0.08262255    -0.37600
N2004       N  0.90267837  0.25399913  0.22568713    -0.37600
N2005       N  0.88964866  0.15435318  0.12583512    -0.37100
N2006       N  0.96666464  0.28163801  0.18985201    -0.37100
C2007       C  0.20749667  0.13475619  0.09975560    -0.03700
C2008       C  0.19591015  0.12033030  0.07804608    -0.00900
C2009       C  0.21173128  0.11223323  0.05549732     0.04100
C2010       C  0.23975458  0.11817789  0.05407680    -0.03700
C2011       C  0.25163664  0.13044481  0.07711057    -0.00800
C2012       C  0.23571329  0.13916097  0.09917765     0.04100
C2013       C  0.16730100  0.11505212  0.07826582     0.38800
C2014       C  0.28032399  0.13494798  0.07846258     0.38800
C2015       C  0.24848250  0.15404587  0.12106433     0.37200
C2016       C  0.19863381  0.09756881  0.03390224     0.37200
N2017       N  0.25868699  0.16613383  0.13832878    -0.37600
N2018       N  0.18710832  0.08560869  0.01741386    -0.37600
N2019       N  0.30310279  0.13902501  0.08102283    -0.37100
N2020       N  0.14444860  0.11081358  0.07845719    -0.37100
C2021       C  0.12229016  0.08579251  0.21053385    -0.03700
C2022       C  0.11557763  0.08367910  0.23803326    -0.00900
C2023       C  0.10649971  0.05889404  0.24888202     0.04100
C2024       C  0.09842229  0.03726205  0.23184278    -0.03700
C2025       C  0.09989683  0.04177104  0.20361871    -0.00800
C2026       C  0.11339072  0.06488565  0.19314634     0.04100
C2027       C  0.11711246  0.10738593  0.25546584     0.38800
C2028       C  0.08640364  0.02346547  0.18517702     0.38800
C2029       C  0.11864253  0.06668662  0.16469790     0.37200
C2030       C  0.10831929  0.05569494  0.27769514     0.37200
N2031       N  0.12299610  0.06807761  0.14198637    -0.37600
N2032       N  0.11115728  0.05454851  0.30077950    -0.37600
N2033       N  0.07491841  0.00974494  0.17006584    -0.37100
N2034       N  0.11741188  0.12607007  0.26967529    -0.37100
C2035       C  0.10166893  0.20208482  0.13942957    -0.03700
C2036       C  0.08096923  0.18349709  0.13310196    -0.00900
C2037       C  0.05400197  0.19273396  0.12937888     0.04100
C2038       C  0.04699221  0.22065415  0.13256594    -0.03700
C2039       C  0.06779245  0.23926180  0.13855328    -0.00800
C2040       C  0.09483260  0.23019781  0.14132123     0.04100
C2041       C  0.08760030  0.15495102  0.12865372     0.38800
C2042       C  0.06182605  0.26799891  0.14228569     0.38800
C2043       C  0.11553934  0.25029980  0.14606034     0.37200
C2044       C  0.03417388  0.17355121  0.11973413     0.37200
N2045       N  0.13185650  0.26664461  0.14923929    -0.37600
N2046       N  0.01947677  0.15764905  0.11091644    -0.37600
N2047       N  0.05822679  0.29109760  0.14567710    -0.37100
N2048       N  0.09284899  0.13221064  0.12495594    -0.37100
C2049       C  0.86356474  0.74624760  0.31284208    -0.03700
C2050       C  0.86625850  0.77350959  0.30450023    -0.00900
C2051       C  0.85971042  0.78060619  0.27798041     0.04100
C2052       C  0.84243860  0.76378002  0.26238234    -0.03700
C2053       C  0.83953831  0.73637055  0.27065437    -0.00800
C2054       C  0.85296184  0.72721368  0.29419832     0.04100
C2055       C  0.87387162  0.79513379  0.32279709     0.38800
C2056       C  0.82360206  0.71720549  0.25516756     0.38800
C2057       C  0.85799852  0.69829597  0.29779120     0.37200
C2058       C  0.87392357  0.80314958  0.26611214     0.37200
N2059       N  0.86275380  0.67522172  0.29968469    -0.37600
N2060       N  0.88620028  0.82038774  0.25653329    -0.37600
N2061       N  0.81074946  0.70177300  0.24310384    -0.37100
N2062       N  0.87911436  0.81346891  0.33647602    -0.37100
C2063       C  0.79844808  0.88260682  0.03468662    -0.03700
C2064       C  0.78035267  0.87762844  0.05569144    -0.00900
C2065       C  0.79015849  0.87395328  0.08189364     0.04100
C2066       C  0.81814528  0.87312334  0.08699997    -0.03700
C2067       C  0.83608856  0.88068808  0.06684843    -0.00800
C2068       C  0.82625680  0.88518334  0.04054995     0.04100
C2069       C  0.75184076  0.87374919  0.05057105     0.38800
C2070       C  0.86454739  0.88349801  0.07301472     0.38800
C2071       C  0.84476879  0.89311944  0.01987178     0.37200
C2072       C  0.77133064  0.87044856  0.10368822     0.37200
N2073       N  0.85991683  0.90001861  0.00393428    -0.37600
N2074       N  0.75631060  0.86765983  0.12096080    -0.37600
N2075       N  0.88723174  0.88588856  0.07798003    -0.37100
N2076       N  0.72911388  0.86956475  0.04764950    -0.37100
C2077       C  0.86388153  0.89270194  0.22746372    -0.03700
C2078       C  0.86936367  0.91461380  0.21008660    -0.00900
C2079       C  0.86732505  0.94138299  0.21948903     0.04100
C2080       C  0.86040847  0.94626441  0.24641934    -0.03700
C2081       C  0.85373983  0.92453139  0.26344737    -0.00800
C2082       C  0.85621721  0.89775331  0.25425485     0.04100
C2083       C  0.87752329  0.91019185  0.18249796     0.38800
C2084       C  0.84527252  0.92966868  0.29084017     0.38800
C2085       C  0.85151627  0.87558377  0.27284810     0.37200
C2086       C  0.87563246  0.96322839  0.20197499     0.37200
N2087       N  0.84756193  0.85843344  0.28815718    -0.37600
N2088       N  0.88329278  0.97919651  0.18695032    -0.37600
N2089       N  0.83837996  0.93369795  0.31259278    -0.37100
N2090       N  0.88440520  0.90762271  0.16053742    -0.37100
C2091       C  0.99597848  0.78833347  0.14915402    -0.03700
C2092       C  0.00807062  0.77501992  0.17173863    -0.00900
C2093       C  0.00837389  0.78728999  0.19774888     0.04100
C2094       C  0.99482443  0.81224737  0.20277587    -0.03700
C2095       C  0.98180699  0.82521712  0.18065580    -0.00800
C2096       C  0.98280212  0.81378856  0.15414236     0.04100
C2097       C  0.01839130  0.74747758  0.16898069     0.38800
C2098       C  0.96670692  0.85015017  0.18523257     0.38800
C2099       C  0.97046226  0.82882135  0.13214749     0.37200
C2100       C  0.02325500  0.77431373  0.21950193     0.35600
N2101       N  0.96059257  0.84167958  0.11510750    -0.37600
N2102       N  0.03547147  0.76391905  0.23667784    -0.37600
N2103       N  0.95427133  0.86996144  0.18840134    -0.37100
N2104       N  0.02599318  0.72512458  0.16774673    -0.37100
C2105       C  0.94852668  0.77173842  0.11171617    -0.03700
C2106       C  0.93761148  0.76414414  0.13665335    -0.00900
C2107       C  0.91384505  0.77686260  0.14564659     0.04100
C2108       C  0.89905386  0.79416517  0.12827402    -0.03700
C2109       C  0.90726052  0.79770226  0.10170164    -0.00800
C2110       C  0.93290044  0.78849654  0.09408571     0.04100
C2111       C  0.95081022  0.74374405  0.15339084     0.38800
C2112       C  0.88973418  0.81166541  0.08245593     0.38800
C2113       C  0.94429747  0.80043617  0.07032376     0.37200
C2114       C  0.90514780  0.77304990  0.17304844     0.37200
N2115       N  0.95256741  0.81158445  0.05180850    -0.37600
N2116       N  0.89831608  0.77029220  0.19497208    -0.37600
N2117       N  0.87563554  0.82199558  0.06669320    -0.37100
N2118       N  0.96049600  0.72716301  0.16706812    -0.37100
C2119       C  0.18118426  0.76489323  0.34912822    -0.03700
C2120       C  0.17696265  0.79263147  0.34280820    -0.00900
C2121       C  0.17785429  0.80103859  0.31607328     0.04100
C2122       C  0.18394879  0.78191152  0.29593082    -0.03700
C2123       C  0.19181346  0.75504779  0.30260664    -0.00800
C2124       C  0.18952968  0.74622107  0.32915321     0.04100
C2125       C  0.17024130  0.81243243  0.36335451     0.38800
C2126       C  0.19972894  0.73570498  0.28189052     0.38800
C2127       C  0.19125275  0.71715174  0.33434577     0.37200
C2128       C  0.17175676  0.82923897  0.30923164     0.37200
N2129       N  0.19174898  0.69369366  0.33671720    -0.37600
N2130       N  0.16666619  0.85167812  0.30388254    -0.37600
N2131       N  0.20616635  0.72028311  0.26550972    -0.37100
N2132       N  0.16491739  0.82887539  0.37915254    -0.37100
C2133       C  0.09086368  0.79427616  0.15497231    -0.03700
C2134       C  0.07483747  0.81464778  0.14221399    -0.00900
C2135       C  0.05276183  0.80725041  0.12559486     0.04100
C2136       C  0.04769358  0.77947752  0.11974092    -0.03700
C2137       C  0.06630337  0.75954530  0.12901713    -0.00800
C2138       C  0.08726865  0.76679001  0.14709607     0.04100
C2139       C  0.08091426  0.84327874  0.14588543     0.38800
C2140       C  0.06311079  0.73122086  0.12134999     0.38800
C2141       C  0.10561943  0.74575787  0.15682549     0.37200
C2142       C  0.03548888  0.82849372  0.11429852     0.37200
N2143       N  0.11996538  0.72842555  0.16400121    -0.37600
N2144       N  0.02237899  0.84588267  0.10510251    -0.37600
N2145       N  0.06078615  0.70848492  0.11563724    -0.37100
N2146       N  0.08569498  0.86620885  0.14820459    -0.37100
C2147       C  0.12482725  0.88234470  0.22957451    -0.03700
C2148       C  0.14025502  0.90121940  0.24442535    -0.00900
C2149       C  0.12863870  0.92636442  0.25298368     0.04100
C2150       C  0.10294961  0.93520022  0.24315856    -0.03700
C2151       C  0.08795817  0.91630763  0.22746821    -0.00800
C2152       C  0.09784592  0.88941634  0.22312317     0.04100
C2153       C  0.16788981  0.89442392  0.25174313     0.38800
C2154       C  0.06369223  0.92473812  0.21319515     0.38800
C2155       C  0.08008213  0.86887426  0.21210347     0.37200
C2156       C  0.14260513  0.94171199  0.27356573     0.37200
N2157       N  0.06592683  0.85204753  0.20412474    -0.37600
N2158       N  0.15426164  0.95237476  0.29082795    -0.37600
N2159       N  0.04482220  0.93062994  0.20046829    -0.37100
N2160       N  0.19003744  0.88922026  0.25742684    -0.37100
C2161       C  0.21862406  0.87822109  0.06866602    -0.03700
C2162       C  0.19024013  0.87869583  0.07104816    -0.00900
C2163       C  0.17866501  0.86793832  0.09407129     0.04100
C2164       C  0.19549469  0.86037359  0.11563530    -0.03700
C2165       C  0.22333925  0.86439892  0.11491256    -0.00800
C2166       C  0.23515472  0.87037323  0.09065916     0.04100
C2167       C  0.17281381  0.89104099  0.05081431     0.38800
C2168       C  0.23972313  0.86314564  0.13928658     0.38800
C2169       C  0.26400731  0.86652140  0.08855976     0.37200
C2170       C  0.14984576  0.86372993  0.09527595     0.37200
N2171       N  0.28701297  0.86263489  0.08800787    -0.37600
N2172       N  0.12691353  0.86011692  0.09623269    -0.37600
N2173       N  0.25294183  0.86328989  0.15861333    -0.37100
N2174       N  0.15797695  0.90152732  0.03584163    -0.37100
C2175       C  0.02655134  0.80683980  0.77281246    -0.03700
C2176       C  0.01978603  0.77959201  0.76703084    -0.00900
C2177       C  0.02048245  0.76000352  0.78759798     0.04100
C2178       C  0.02713918  0.76775027  0.81413915    -0.03700
C2179       C  0.03687516  0.79428633  0.81917521    -0.00800
C2180       C  0.03670519  0.81365479  0.79839866     0.04100
C2181       C  0.01076595  0.77183599  0.74035684     0.38800
C2182       C  0.04270030  0.80346557  0.84627612     0.38800
C2183       C  0.04613289  0.84095246  0.80371477     0.37200
C2184       C  0.01317526  0.73205860  0.78178265     0.37200
N2185       N  0.05390662  0.86248438  0.80885597    -0.37600
N2186       N  0.00751917  0.70974275  0.77696210    -0.37600
N2187       N  0.04642800  0.81235641  0.86753520    -0.37100
N2188       N  0.00346424  0.76478112  0.71933247    -0.37100
C2189       C  0.17339011  0.80291406  0.73697990    -0.03700
C2190       C  0.18767915  0.80969686  0.71367837    -0.00900
C2191       C  0.17656015  0.80373037  0.68830590     0.04100
C2192       C  0.15138094  0.79074261  0.68640364    -0.03700
C2193       C  0.13509094  0.78956793  0.70940694    -0.00800
C2194       C  0.14546027  0.79852405  0.73412408     0.04100
C2195       C  0.21233444  0.82514268  0.71555050     0.38800
C2196       C  0.10920142  0.77626824  0.70909883     0.38800
C2197       C  0.12692373  0.80655312  0.75501552     0.37200
C2198       C  0.19129123  0.81067280  0.66442966     0.37200
N2199       N  0.11182641  0.81370609  0.77111416    -0.37600
N2200       N  0.20327577  0.81685250  0.64571893    -0.37600
N2201       N  0.08874246  0.76532781  0.71002450    -0.37100
N2202       N  0.23157322  0.83812443  0.71717766    -0.37100
C2203       C  0.10720138  0.77951691  0.84672301    -0.03700
C2204       C  0.09757701  0.77689929  0.87297474    -0.00900
C2205       C  0.07610377  0.75944184  0.87774507     0.04100
C2206       C  0.06555369  0.74379756  0.85623161    -0.03700
C2207       C  0.08016812  0.74105311  0.83250305    -0.00800
C2208       C  0.10039526  0.75962335  0.82714832     0.04100
C2209       C  0.10947557  0.79243102  0.89492083     0.38800
C2210       C  0.07308544  0.72058197  0.81261100     0.38800
C2211       C  0.11433213  0.75715752  0.80184719     0.37200
C2212       C  0.06315761  0.76122030  0.90351645     0.37200
N2213       N  0.12556893  0.75335106  0.78200042    -0.37600
N2214       N  0.05404302  0.76412290  0.92456562    -0.37600
N2215       N  0.06830476  0.70441692  0.79632461    -0.37100
N2216       N  0.11921065  0.80468910  0.91232005    -0.37100
C2217       C  0.21329949  0.87268370  0.92314680    -0.03700
C2218       C  0.22965999  0.85300101  0.93648285    -0.00900
C2219       C  0.24269253  0.85968266  0.96058871     0.04100
C2220       C  0.23673081  0.88467803  0.97306032    -0.03700
C2221       C  0.22082212  0.90464111  0.95943228    -0.00800
C2222       C  0.21039532  0.89903289  0.93371852     0.04100
C2223       C  0.23208682  0.82532274  0.92613969     0.38800
C2224       C  0.21157023  0.92917875  0.97289227     0.38800
C2225       C  0.19669451  0.92029923  0.91840955     0.37200
C2226       C  0.26132941  0.84023721  0.97283409     0.37200
N2227       N  0.18637072  0.93783062  0.90646059    -0.37600
N2228       N  0.27627914  0.82419765  0.98162460    -0.37600
N2229       N  0.20282404  0.94854555  0.98297729    -0.37100
N2230       N  0.23390669  0.80322772  0.91811123    -0.37100
C2231       C  0.11247168  0.98398108  0.75139432    -0.03700
C2232       C  0.09898587  0.96175444  0.76316451    -0.00900
C2233       C  0.08591462  0.94248640  0.74686238     0.04100
C2234       C  0.07940424  0.94845000  0.72002152    -0.03700
C2235       C  0.09197067  0.97057243  0.70780162    -0.00800
C2236       C  0.11026193  0.98680044  0.72294028     0.04100
C2237       C  0.09481621  0.95949611  0.79166199     0.38800
C2238       C  0.08691381  0.97578927  0.67957992     0.38800
C2239       C  0.12850597  0.00410375  0.70867718     0.37200
C2240       C  0.08115198  0.91540484  0.75703417     0.37200
N2241       N  0.14353111  0.01674729  0.69650918    -0.37600
N2242       N  0.07860162  0.89337055  0.76472729    -0.37600
N2243       N  0.08284203  0.98000097  0.65701296    -0.37100
N2244       N  0.08898008  0.95633232  0.81382444    -0.37100
C2245       C  0.15690880  0.96663660  0.79657737    -0.03700
C2246       C  0.16753413  0.94491907  0.78121655    -0.00900
C2247       C  0.17255053  0.91901873  0.79308054     0.04100
C2248       C  0.16526872  0.91394415  0.81999325    -0.03700
C2249       C  0.15271521  0.93515032  0.83463495    -0.00800
C2250       C  0.14950830  0.96149745  0.82341282     0.04100
C2251       C  0.17226735  0.94872252  0.75285676     0.38800
C2252       C  0.14199005  0.92967955  0.86098201     0.38800
C2253       C  0.13509838  0.98224805  0.83841831     0.37200
C2254       C  0.18391608  0.89734081  0.77686299     0.37200
N2255       N  0.12213548  0.99780342  0.85017799    -0.37600
N2256       N  0.19288223  0.88062838  0.76310222    -0.37600
N2257       N  0.13284334  0.92533574  0.88174090    -0.37100
N2258       N  0.17571868  0.95122388  0.73007544    -0.37100
C2259       C  0.17511070  0.12178917  0.80317417    -0.03700
C2260       C  0.15055627  0.11067114  0.81124851    -0.00900
C2261       C  0.14432610  0.08347442  0.80501172     0.04100
C2262       C  0.16130381  0.06785651  0.78823286    -0.03700
C2263       C  0.18450752  0.08023011  0.77765871    -0.00800
C2264       C  0.19151466  0.10699045  0.78539587     0.04100
C2265       C  0.13140803  0.12742428  0.82577493     0.38800
C2266       C  0.20144451  0.06605707  0.75870501     0.38800
C2267       C  0.21618972  0.11889862  0.77585663     0.37200
C2268       C  0.12169644  0.07120591  0.81815178     0.37200
N2269       N  0.23583525  0.12834491  0.76814876    -0.37600
N2270       N  0.10402256  0.06209101  0.82985002    -0.37600
N2271       N  0.21561059  0.05641171  0.74301449    -0.37100
N2272       N  0.11555901  0.14065316  0.83671605    -0.37100
C2273       C  0.25783644  0.14373846  0.90305378    -0.03700
C2274       C  0.26692912  0.16389188  0.92130299    -0.00900
C2275       C  0.26865310  0.15798479  0.94880091     0.04100
C2276       C  0.25922008  0.13278947  0.95823264    -0.03700
C2277       C  0.24596458  0.11473968  0.94051733    -0.00800
C2278       C  0.24594472  0.11975658  0.91292402     0.04100
C2279       C  0.27432239  0.19091016  0.91225744     0.38800
C2280       C  0.23460062  0.08955178  0.95021555     0.38800
C2281       C  0.23421940  0.09966834  0.89485580     0.37200
C2282       C  0.28422218  0.17607024  0.96584076     0.37200
N2283       N  0.22458811  0.08393830  0.88040559    -0.37600
N2284       N  0.29783063  0.19116054  0.97746273    -0.37600
N2285       N  0.22547904  0.06924887  0.95719867    -0.37100
N2286       N  0.28005778  0.21260356  0.90547823    -0.37100
C2287       C  0.08844706  0.22888682  0.89112301    -0.03700
C2288       C  0.10527018  0.24681063  0.87735287    -0.00900
C2289       C  0.12885601  0.23681685  0.86548767     0.04100
C2290       C  0.13762036  0.20973882  0.87054175    -0.03700
C2291       C  0.12159733  0.19234223  0.88616440    -0.00800
C2292       C  0.09662913  0.20160418  0.89543465     0.04100
C2293       C  0.09859101  0.27562176  0.87549948     0.38800
C2294       C  0.13025238  0.16457673  0.89238838     0.38800
C2295       C  0.08018138  0.18307948  0.91054276     0.37200
C2296       C  0.14361532  0.25455755  0.84790447     0.37200
N2297       N  0.06824069  0.16765876  0.92306596    -0.37600
N2298       N  0.15474103  0.26884204  0.83346109    -0.37600
N2299       N  0.13706536  0.14252716  0.89759140    -0.37100
N2300       N  0.09372418  0.29870917  0.87402040    -0.37100
C2301       C  0.93975656  0.94438210  0.75972896    -0.03700
C2302       C  0.93065713  0.92545607  0.74031986    -0.00900
C2303       C  0.94795416  0.90474366  0.73046353     0.04100
C2304       C  0.97627588  0.90597562  0.73454414    -0.03700
C2305       C  0.98456376  0.92236927  0.75670481    -0.00800
C2306       C  0.96704112  0.94227805  0.76814079     0.04100
C2307       C  0.90370385  0.92755923  0.72898273     0.38800
C2308       C  0.00929680  0.91597346  0.77103133     0.38800
C2309       C  0.97727465  0.95982379  0.78930404     0.37200
C2310       C  0.93511300  0.87910235  0.72463747     0.37200
N2311       N  0.98603378  0.97338177  0.80626534    -0.37600
N2312       N  0.92270201  0.85963123  0.72088625    -0.37600
N2313       N  0.02807541  0.91118402  0.78422409    -0.37100
N2314       N  0.88285711  0.92924469  0.71840362    -0.37100
C2315       C  0.89528783  0.02768150  0.80541211    -0.03700
C2316       C  0.89925094  0.03234022  0.83335592    -0.00900
C2317       C  0.89141755  0.05745468  0.84521771     0.04100
C2318       C  0.87722301  0.07713070  0.82988892    -0.03700
C2319       C  0.87263350  0.07204983  0.80207709    -0.00800
C2320       C  0.88370182  0.04867248  0.78965452     0.04100
C2321       C  0.91292226  0.01201326  0.84981359     0.38800
C2322       C  0.85482488  0.08968595  0.78632949     0.38800
C2323       C  0.88354277  0.04669124  0.76061681     0.37200
C2324       C  0.89672374  0.06244005  0.87348726     0.37200
N2325       N  0.88386981  0.04584080  0.73739801    -0.37600
N2326       N  0.90112368  0.06646565  0.89602487    -0.37600
N2327       N  0.83985592  0.10292942  0.77377593    -0.37100
N2328       N  0.92482594  0.99660095  0.86312723    -0.37100
C2329       C  0.94565638  0.19715772  0.87749728    -0.03700
C2330       C  0.95976554  0.21362077  0.85886714    -0.00900
C2331       C  0.97890070  0.23262963  0.86765405     0.04100
C2332       C  0.98912833  0.23188149  0.89409100    -0.03700
C2333       C  0.97540688  0.21580566  0.91309067    -0.00800
C2334       C  0.95305804  0.19945852  0.90502214     0.04100
C2335       C  0.95524070  0.21146660  0.83001512     0.38800
C2336       C  0.98492044  0.21508314  0.94072279     0.38800
C2337       C  0.93779264  0.18531961  0.92507362     0.37200
C2338       C  0.98748443  0.25320952  0.84890413     0.37200
N2339       N  0.92548368  0.17423920  0.94118239    -0.37600
N2340       N  0.99255612  0.26913848  0.83270462    -0.37600
N2341       N  0.99245929  0.21426950  0.96281713    -0.37100
N2342       N  0.95193077  0.21073446  0.80698821    -0.37100
C2343       C  0.82123951  0.13953167  0.92868106    -0.03700
C2344       C  0.80537292  0.16159290  0.93816822    -0.00900
C2345       C  0.79056827  0.15929827  0.96227026     0.04100
C2346       C  0.79249819  0.13530964  0.97818142    -0.03700
C2347       C  0.80841087  0.11324081  0.96832514    -0.00800
C2348       C  0.82131052  0.11490411  0.94322474     0.04100
C2349       C  0.80311688  0.18627584  0.92221645     0.38800
C2350       C  0.81464015  0.08990847  0.98518181     0.38800
C2351       C  0.83411661  0.09081301  0.93196499     0.37200
C2352       C  0.77351185  0.18186056  0.97053018     0.37200
N2353       N  0.84377996  0.07140087  0.92281389    -0.37600
N2354       N  0.76013343  0.20018493  0.97684746    -0.37600
N2355       N  0.82111280  0.07143809  0.99827946    -0.37100
N2356       N  0.80126105  0.20585711  0.90934944    -0.37100
C2357       C  0.84502881  0.78447113  0.71607567    -0.03700
C2358       C  0.85684594  0.75875540  0.71183532    -0.00900
C2359       C  0.86747006  0.75278166  0.68695136     0.04100
C2360       C  0.86592497  0.77256360  0.66645552    -0.03700
C2361       C  0.85678683  0.79936918  0.67177094    -0.00800
C2362       C  0.84649985  0.80541384  0.69706227     0.04100
C2363       C  0.85921443  0.73894180  0.73352017     0.38800
C2364       C  0.85720868  0.82039866  0.65136945     0.38800
C2365       C  0.83736133  0.83281464  0.70359012     0.37200
C2366       C  0.88267477  0.72755153  0.68368723     0.37200
N2367       N  0.83037622  0.85469408  0.70906921    -0.37600
N2368       N  0.89621887  0.70823455  0.68264084    -0.37600
N2369       N  0.85740529  0.83739659  0.63529150    -0.37100
N2370       N  0.86148329  0.72327785  0.75077977    -0.37100
C2371       C  0.79431671  0.83351272  0.89706453    -0.03700
C2372       C  0.77767623  0.82307571  0.91707078    -0.00900
C2373       C  0.76847280  0.84062391  0.93726992     0.04100
C2374       C  0.77768440  0.86769667  0.93830314    -0.03700
C2375       C  0.79000829  0.87900324  0.91566928    -0.00800
C2376       C  0.79716736  0.86192496  0.89441469     0.04100
C2377       C  0.77126073  0.79435909  0.91780283     0.38800
C2378       C  0.79887173  0.90692527  0.91496314     0.38800
C2379       C  0.80833380  0.87359048  0.87026588     0.37200
C2380       C  0.75040193  0.83066335  0.95747170     0.37200
N2381       N  0.81698348  0.88332772  0.85116648    -0.37600
N2382       N  0.73540957  0.82270269  0.97307049    -0.37600
N2383       N  0.80741806  0.92858631  0.91269810    -0.37100
N2384       N  0.76598683  0.77146370  0.91820556    -0.37100
C2385       C  0.87109189  0.87465918  0.80947606    -0.03700
C2386       C  0.85409277  0.89160404  0.79343401    -0.00900
C2387       C  0.86304820  0.91711129  0.78434980     0.04100
C2388       C  0.88814201  0.92745769  0.79320760    -0.03700
C2389       C  0.90437625  0.91135743  0.81073142    -0.00800
C2390       C  0.89642737  0.88487351  0.81807425     0.04100
C2391       C  0.82655415  0.88370617  0.78734741     0.38800
C2392       C  0.92853641  0.92257276  0.82292068     0.38800
C2393       C  0.91465318  0.86842962  0.83460787     0.37200
C2394       C  0.84634819  0.93160463  0.76491177     0.37200
N2395       N  0.92931796  0.85548559  0.84779779    -0.37600
N2396       N  0.83213863  0.94122451  0.74880815    -0.37600
N2397       N  0.94745264  0.93120594  0.83359035    -0.37100
N2398       N  0.80446690  0.87778274  0.78281309    -0.37100
C2399       C  0.92033624  0.76791195  0.80707280    -0.03700
C2400       C  0.94182202  0.78573690  0.80605849    -0.00900
C2401       C  0.96520076  0.77860190  0.82023041     0.04100
C2402       C  0.97041069  0.75070023  0.82630692    -0.03700
C2403       C  0.95110795  0.73109289  0.81855159    -0.00800
C2404       C  0.92498261  0.74001860  0.81174528     0.04100
C2405       C  0.93823113  0.81271083  0.79447827     0.38800
C2406       C  0.95750828  0.70220903  0.81838882     0.38800
C2407       C  0.90273794  0.72116632  0.81173437     0.37200
C2408       C  0.97878683  0.80071380  0.83374924     0.37200
N2409       N  0.88501198  0.70609931  0.81209555    -0.37600
N2410       N  0.98709672  0.81964783  0.84484681    -0.37600
N2411       N  0.96236492  0.67909951  0.81748865    -0.37100
N2412       N  0.93564458  0.83391998  0.78456368    -0.37100
C2413       C  0.52631162  0.27653218  0.68754395    -0.03700
C2414       C  0.52289370  0.27283661  0.71560303    -0.00900
C2415       C  0.52317152  0.29526151  0.73303980     0.04100
C2416       C  0.52922610  0.32125363  0.72344509    -0.03700
C2417       C  0.53515840  0.32485787  0.69617325    -0.00800
C2418       C  0.53185064  0.30307059  0.67797971     0.04100
C2419       C  0.51961798  0.24630875  0.72760242     0.38800
C2420       C  0.54594364  0.35040089  0.68697845     0.38800
C2421       C  0.53266617  0.30862125  0.64945269     0.37200
C2422       C  0.51947426  0.29126675  0.76162977     0.37200
N2423       N  0.53317790  0.31340805  0.62672407    -0.37600
N2424       N  0.51765328  0.28748370  0.78445220    -0.37600
N2425       N  0.55515992  0.37038870  0.67919811    -0.37100
N2426       N  0.51641077  0.22616595  0.73903576    -0.37100
C2427       C  0.56357648  0.21953965  0.59274970    -0.03700
C2428       C  0.55435873  0.23814998  0.57260959    -0.00900
C2429       C  0.56953264  0.24305635  0.54896918     0.04100
C2430       C  0.59606410  0.23243336  0.54639247    -0.03700
C2431       C  0.60621225  0.21686041  0.56846618    -0.00800
C2432       C  0.59146975  0.21415504  0.59242140     0.04100
C2433       C  0.53193712  0.25619880  0.57814503     0.38800
C2434       C  0.63112555  0.20159766  0.56664890     0.38800
C2435       C  0.60645741  0.21797524  0.61725591     0.37200
C2436       C  0.55784551  0.26026991  0.52816007     0.37200
N2437       N  0.61852782  0.22144579  0.63702221    -0.37600
N2438       N  0.54761865  0.27422287  0.51221011    -0.37600
N2439       N  0.65020012  0.18789294  0.56574291    -0.37100
N2440       N  0.51505107  0.27207410  0.58193165    -0.37100
C2441       C  0.45695994  0.20421338  0.56078513    -0.03700
C2442       C  0.44210348  0.18724786  0.54362630    -0.00900
C2443       C  0.42161627  0.19847525  0.52680931     0.04100
C2444       C  0.41846690  0.22722772  0.52421033    -0.03700
C2445       C  0.43377189  0.24409074  0.54152133    -0.00800
C2446       C  0.45080771  0.23234056  0.56136442     0.04100
C2447       C  0.44699184  0.15807945  0.54452155     0.38800
C2448       C  0.43235611  0.27349975  0.53900648     0.38800
C2449       C  0.45908576  0.24841040  0.58436238     0.37200
C2450       C  0.40140966  0.18019812  0.51645317     0.37200
N2451       N  0.46434355  0.26106711  0.60332618    -0.37600
N2452       N  0.38505131  0.16449381  0.51092776    -0.37600
N2453       N  0.43159871  0.29699533  0.53697685    -0.37100
N2454       N  0.45088943  0.13478099  0.54525932    -0.37100
C2455       C  0.80629000  0.98801923  0.83233237    -0.03700
C2456       C  0.82902965  0.98058006  0.84847331    -0.00900
C2457       C  0.85386679  0.97402630  0.83658590     0.04100
C2458       C  0.85807579  0.98014738  0.80943752    -0.03700
C2459       C  0.83612494  0.98973700  0.79359918    -0.00800
C2460       C  0.81000293  0.99120952  0.80435007     0.04100
C2461       C  0.82809359  0.98204743  0.87746544     0.38800
C2462       C  0.84016392  0.99713231  0.76583177     0.38800
C2463       C  0.78712466  0.99473525  0.78622265     0.37200
C2464       C  0.87472960  0.96058649  0.85243171     0.37200
N2465       N  0.76898551  0.99737393  0.77153725    -0.37600
N2466       N  0.89056824  0.94926063  0.86571122    -0.37600
N2467       N  0.84276846  0.00257054  0.74343358    -0.37100
N2468       N  0.82837468  0.98366517  0.90064129    -0.37100
C2469       C  0.73216291  0.96192322  0.91367070    -0.03700
C2470       C  0.71700414  0.93900104  0.92134799    -0.00900
C2471       C  0.72844674  0.91917072  0.93875200     0.04100
C2472       C  0.75227704  0.92479200  0.95349218    -0.03700
C2473       C  0.76524649  0.94975079  0.94925810    -0.00800
C2474       C  0.75574536  0.96786229  0.92926969     0.04100
C2475       C  0.68843488  0.93759768  0.91533483     0.38800
C2476       C  0.79045804  0.95573423  0.96305159     0.38800
C2477       C  0.76994478  0.99341226  0.92601557     0.37200
C2478       C  0.71553361  0.89298510  0.94084342     0.37200
N2479       N  0.78102023  0.01389632  0.92383058    -0.37600
N2480       N  0.70463812  0.87230920  0.94184675    -0.37600
N2481       N  0.81107900  0.96109803  0.97260966    -0.37100
N2482       N  0.66550354  0.93639516  0.91109146    -0.37100
C2483       C  0.72579779  0.06085851  0.95346846    -0.03700
C2484       C  0.74082627  0.04920117  0.97574170    -0.00900
C2485       C  0.75224202  0.06590930  0.99606180     0.04100
C2486       C  0.74863733  0.09431189  0.99526376    -0.03700
C2487       C  0.73118853  0.10564189  0.97535962    -0.00800
C2488       C  0.71978735  0.08914782  0.95485682     0.04100
C2489       C  0.74419625  0.02018098  0.97986746     0.38800
C2490       C  0.72315779  0.13410899  0.97717578     0.38800
C2491       C  0.70018155  0.10117452  0.93638987     0.37200
C2492       C  0.76799712  0.05353468  0.01781606     0.37200
N2493       N  0.68442623  0.11084171  0.92178823    -0.37600
N2494       N  0.78044097  0.04319029  0.03490409    -0.37600
N2495       N  0.71603591  0.15658675  0.97882298    -0.37100
N2496       N  0.74689401  0.99738990  0.98537581    -0.37100
C2497       C  0.24369885  0.01309579  0.83493882    -0.03700
C2498       C  0.24136211  0.00745672  0.80692426    -0.00900
C2499       C  0.21589163  0.00780582  0.79364219     0.04100
C2500       C  0.19244785  0.01612303  0.80713867    -0.03700
C2501       C  0.19483442  0.02285971  0.83469278    -0.00800
C2502       C  0.21970652  0.01933326  0.84876101     0.04100
C2503       C  0.26483696  0.00134833  0.79106552     0.38800
C2504       C  0.17222619  0.03408774  0.84901708     0.38800
C2505       C  0.21986059  0.01994296  0.87781199     0.37200
C2506       C  0.21405907  0.00063978  0.76544726     0.37200
N2507       N  0.21938369  0.02020039  0.90101764    -0.37600
N2508       N  0.21332805  0.99543838  0.74277978    -0.37600
N2509       N  0.15533194  0.04361580  0.86184670    -0.37100
N2510       N  0.28283010  0.99592225  0.77753183    -0.37100
C2511       C  0.29953801  0.94833375  0.95401150    -0.03700
C2512       C  0.27780623  0.96105299  0.96793010    -0.00900
C2513       C  0.26914464  0.95056468  0.99244942     0.04100
C2514       C  0.27642780  0.92400521  0.99978533    -0.03700
C2515       C  0.29734569  0.91056147  0.98593761    -0.00800
C2516       C  0.30939641  0.92291653  0.96360784     0.04100
C2517       C  0.26275251  0.98390329  0.95654455     0.38800
C2518       C  0.30732149  0.88443891  0.99564037     0.38800
C2519       C  0.33152917  0.90905496  0.95060903     0.37200
C2520       C  0.25278123  0.96719319  0.01004016     0.37200
N2521       N  0.34898398  0.89752337  0.94025068    -0.37600
N2522       N  0.24023317  0.98102295  0.02404443    -0.37600
N2523       N  0.31582341  0.86395310  0.00380158    -0.37100
N2524       N  0.25079795  0.00240048  0.94797020    -0.37100
C2525       C  0.31999570  0.05077438  0.92392957    -0.03700
C2526       C  0.32856649  0.04656918  0.95140734    -0.00900
C2527       C  0.31397037  0.05857555  0.97337870     0.04100
C2528       C  0.29877180  0.08331012  0.96964293    -0.03700
C2529       C  0.30281543  0.09408019  0.94310545    -0.00800
C2530       C  0.30732394  0.07650278  0.92031732     0.04100
C2531       C  0.35291008  0.03085487  0.95740081     0.38800
C2532       C  0.31575494  0.12020203  0.94143213     0.38800
C2533       C  0.30378442  0.08724970  0.89352207     0.37200
C2534       C  0.31612853  0.04464617  0.99876624     0.37200
N2535       N  0.30097278  0.09597240  0.87207575    -0.37600
N2536       N  0.31905428  0.03131293  0.01776850    -0.37600
N2537       N  0.32755708  0.14029087  0.93962434    -0.37100
N2538       N  0.37222255  0.01826039  0.96228734    -0.37100
C2539       C  0.53203514  0.68290565  0.69071125    -0.03700
C2540       C  0.54245691  0.67950217  0.71745462    -0.00900
C2541       C  0.53941252  0.65453701  0.73164583     0.04100
C2542       C  0.52609482  0.63200229  0.71993830    -0.03700
C2543       C  0.51676072  0.63472147  0.69312408    -0.00800
C2544       C  0.52076998  0.65921576  0.67837295     0.04100
C2545       C  0.55694264  0.70096986  0.73118352     0.38800
C2546       C  0.50278236  0.61226186  0.68046210     0.38800
C2547       C  0.51518611  0.65876681  0.64975281     0.37200
C2548       C  0.54768713  0.65325113  0.75965791     0.37200
N2549       N  0.51078643  0.65751401  0.62690038    -0.37600
N2550       N  0.55337652  0.65365802  0.78227549    -0.37600
N2551       N  0.49138842  0.59464428  0.67000963    -0.37100
N2552       N  0.56930475  0.71698150  0.74302675    -0.37100
C2553       C  0.48007699  0.75896236  0.61152932    -0.03700
C2554       C  0.46068966  0.77862350  0.60201256    -0.00900
C2555       C  0.44397409  0.77313429  0.57946791     0.04100
C2556       C  0.45067230  0.75195259  0.56144840    -0.03700
C2557       C  0.47365790  0.73596171  0.56746384    -0.00800
C2558       C  0.48657353  0.73748688  0.59308505     0.04100
C2559       C  0.46116035  0.80665613  0.61135350     0.38800
C2560       C  0.48489678  0.71837771  0.54701681     0.38800
C2561       C  0.51026021  0.72033853  0.59744389     0.37200
C2562       C  0.42117433  0.79109260  0.57405764     0.37200
N2563       N  0.52967236  0.70722611  0.59987180    -0.37600
N2564       N  0.40362737  0.80647146  0.57052215    -0.37600
N2565       N  0.49512816  0.70425608  0.53151993    -0.37100
N2566       N  0.46203756  0.82930722  0.61785426    -0.37100
C2567       C  0.57346510  0.78121273  0.56616324    -0.03700
C2568       C  0.60185796  0.78334916  0.56427732    -0.00900
C2569       C  0.61535485  0.77303419  0.54123066     0.04100
C2570       C  0.60173725  0.75682888  0.52174390    -0.03700
C2571       C  0.57335733  0.75829136  0.52167695    -0.00800
C2572       C  0.55985343  0.77345166  0.54176025     0.04100
C2573       C  0.61721737  0.79844291  0.58410704     0.38800
C2574       C  0.55727092  0.74394462  0.50187914     0.38800
C2575       C  0.53344058  0.78449416  0.53477863     0.37200
C2576       C  0.64234491  0.78204705  0.53581429     0.37200
N2577       N  0.51244260  0.79333569  0.52896398    -0.37600
N2578       N  0.66332613  0.79065665  0.53118584    -0.37600
N2579       N  0.54310757  0.73279535  0.48694446    -0.37100
N2580       N  0.62999694  0.81061942  0.59951280    -0.37100
C2581       C  0.36414298  0.82916313  0.75802772    -0.03700
C2582       C  0.33936616  0.82930802  0.74334956    -0.00900
C2583       C  0.32812159  0.80477798  0.73314950     0.04100
C2584       C  0.34138664  0.77933362  0.73677064    -0.03700
C2585       C  0.36574269  0.77889256  0.75181085    -0.00800
C2586       C  0.37708836  0.80343086  0.76221481     0.04100
C2587       C  0.32627211  0.85482283  0.73623348     0.38800
C2588       C  0.37955458  0.75309191  0.75606138     0.38800
C2589       C  0.40206878  0.80170617  0.77743648     0.37200
C2590       C  0.30268826  0.80568414  0.71840458     0.37200
N2591       N  0.42188266  0.79931074  0.78978432    -0.37600
N2592       N  0.28247504  0.80603880  0.70654202    -0.37600
N2593       N  0.39040565  0.73241100  0.75969497    -0.37100
N2594       N  0.31538195  0.87451613  0.72898602    -0.37100
C2595       C  0.33860953  0.86668472  0.79978430    -0.03700
C2596       C  0.31644832  0.88463622  0.79582511    -0.00900
C2597       C  0.29214023  0.87916064  0.80820844     0.04100
C2598       C  0.29018284  0.85574140  0.82436127    -0.03700
C2599       C  0.31304821  0.83995715  0.83099187    -0.00800
C2600       C  0.33712484  0.84473340  0.81792683     0.04100
C2601       C  0.31775559  0.90786680  0.77790827     0.38800
C2602       C  0.31200249  0.81978560  0.85224105     0.38800
C2603       C  0.36046867  0.82782340  0.82442679     0.37200
C2604       C  0.26910084  0.89724481  0.80358382     0.37200
N2605       N  0.37868361  0.81429384  0.83084358    -0.37600
N2606       N  0.25091542  0.91186942  0.80011478    -0.37600
N2607       N  0.31147183  0.80415410  0.86959604    -0.37100
N2608       N  0.31765237  0.92631711  0.76345800    -0.37100
C2609       C  0.41943269  0.85379572  0.74331982    -0.03700
C2610       C  0.41214613  0.84803220  0.71636967    -0.00900
C2611       C  0.42988845  0.83360198  0.69926772     0.04100
C2612       C  0.45547738  0.82413216  0.70877678    -0.03700
C2613       C  0.46243048  0.82959547  0.73611177    -0.00800
C2614       C  0.44515685  0.84522665  0.75271444     0.04100
C2615       C  0.38688448  0.85835688  0.70526563     0.38800
C2616       C  0.48649001  0.81778839  0.74837434     0.38800
C2617       C  0.45378786  0.85117630  0.78005647     0.37200
C2618       C  0.42117608  0.82902017  0.67175422     0.37200
N2619       N  0.46159733  0.85523473  0.80168950    -0.37600
N2620       N  0.41298001  0.82548524  0.65016256    -0.37600
N2621       N  0.50537126  0.80890692  0.75925829    -0.37100
N2622       N  0.36735893  0.86678656  0.69520561    -0.37100
C2623       C  0.37126039  0.91896867  0.81113513    -0.03700
C2624       C  0.36597895  0.94571553  0.80125697    -0.00900
C2625       C  0.35328346  0.96615489  0.81764611     0.04100
C2626       C  0.34673366  0.96108839  0.84504627    -0.03700
C2627       C  0.34643544  0.93306654  0.85159094    -0.00800
C2628       C  0.36279683  0.91398618  0.83776039     0.04100
C2629       C  0.37206827  0.95230367  0.77371790     0.38800
C2630       C  0.32073734  0.92223964  0.85911827     0.38800
C2631       C  0.37023098  0.88918938  0.85173482     0.37200
C2632       C  0.34390759  0.99092700  0.80469065     0.37200
N2633       N  0.37660329  0.87016592  0.86410434    -0.37600
N2634       N  0.33694492  0.01036111  0.79334276    -0.37600
N2635       N  0.30005507  0.91335491  0.86456327    -0.37100
N2636       N  0.37612427  0.95860761  0.75180219    -0.37100
C2637       C  0.42506756  0.91058820  0.77451977    -0.03700
C2638       C  0.43185181  0.92195097  0.74957359    -0.00900
C2639       C  0.45444736  0.93879386  0.74747296     0.04100
C2640       C  0.47007131  0.94547989  0.77062771    -0.03700
C2641       C  0.46135567  0.93633990  0.79607712    -0.00800
C2642       C  0.43984540  0.91802641  0.79779077     0.04100
C2643       C  0.41430262  0.91858225  0.72629322     0.38800
C2644       C  0.47350509  0.94626678  0.82088987     0.38800
C2645       C  0.43405420  0.90588552  0.82356883     0.37200
C2646       C  0.45996491  0.95098434  0.72159181     0.37200
N2647       N  0.43050221  0.89609833  0.84430455    -0.37600
N2648       N  0.46420215  0.96079165  0.70099254    -0.37600
N2649       N  0.48262731  0.95442266  0.84083177    -0.37100
N2650       N  0.40038620  0.91744715  0.70749193    -0.37100
C2651       C  0.66102320  0.74583249  0.72754165    -0.03700
C2652       C  0.65337428  0.74869741  0.75439386    -0.00900
C2653       C  0.64264266  0.77376243  0.76310015     0.04100
C2654       C  0.64025643  0.79585199  0.74495753    -0.03700
C2655       C  0.64515040  0.79150734  0.71734996    -0.00800
C2656       C  0.65423572  0.76603122  0.70860407     0.04100
C2657       C  0.65724084  0.72633502  0.77308774     0.38800
C2658       C  0.64442098  0.81357953  0.69809653     0.38800
C2659       C  0.65764284  0.76076943  0.68007116     0.37200
C2660       C  0.63456284  0.77675120  0.79072591     0.37200
N2661       N  0.66011937  0.75644584  0.65738446    -0.37600
N2662       N  0.62784731  0.77817557  0.81282537    -0.37600
N2663       N  0.64520930  0.83034037  0.68181707    -0.37100
N2664       N  0.66010059  0.70856318  0.78814448    -0.37100
C2665       C  0.67661832  0.82729361  0.78240753    -0.03700
C2666       C  0.67947842  0.82182868  0.81020189    -0.00900
C2667       C  0.70297505  0.80889734  0.82003737     0.04100
C2668       C  0.72407793  0.80333738  0.80244256    -0.03700
C2669       C  0.72175854  0.81015237  0.77497359    -0.00800
C2670       C  0.69787878  0.82159163  0.76491054     0.04100
C2671       C  0.65834955  0.82864814  0.82879783     0.38800
C2672       C  0.74414649  0.80662121  0.75683149     0.38800
C2673       C  0.69621299  0.82887141  0.73669189     0.37200
C2674       C  0.70502268  0.80006505  0.84781771     0.37200
N2675       N  0.69659569  0.83510784  0.71431136    -0.37600
N2676       N  0.70666661  0.79261685  0.86982765    -0.37600
N2677       N  0.76120482  0.80457718  0.74140604    -0.37100
N2678       N  0.64214477  0.83334290  0.84461577    -0.37100
C2679       C  0.59188561  0.82947052  0.72752927    -0.03700
C2680       C  0.58753936  0.84077752  0.70173600    -0.00900
C2681       C  0.57243635  0.82656333  0.68173726     0.04100
C2682       C  0.56142372  0.80029336  0.68688863    -0.03700
C2683       C  0.56143990  0.79224429  0.71443097    -0.00800
C2684       C  0.57740127  0.80581910  0.73401911     0.04100
C2685       C  0.59934243  0.86665583  0.69490317     0.38800
C2686       C  0.54190667  0.77289138  0.72389508     0.38800
C2687       C  0.57691903  0.79647592  0.76160651     0.37200
C2688       C  0.56636356  0.84081307  0.65684093     0.37200
N2689       N  0.57524678  0.78896188  0.78351550    -0.37600
N2690       N  0.56156644  0.85283117  0.63732207    -0.37600
N2691       N  0.52575059  0.75825195  0.73179174    -0.37100
N2692       N  0.60845209  0.88701566  0.68803128    -0.37100
C2693       C  0.65414869  0.88730047  0.78982375    -0.03700
C2694       C  0.63927147  0.89851611  0.81135864    -0.00900
C2695       C  0.64738778  0.92297409  0.82406950     0.04100
C2696       C  0.67168714  0.93548723  0.81729991    -0.03700
C2697       C  0.68778255  0.92337745  0.79759260    -0.00800
C2698       C  0.67881463  0.90007657  0.78323369     0.04100
C2699       C  0.61613119  0.88439561  0.82147146     0.38800
C2700       C  0.71416006  0.93460346  0.79292648     0.38800
C2701       C  0.69499358  0.89081101  0.76112667     0.37200
C2702       C  0.63083608  0.93535401  0.84454280     0.37200
N2703       N  0.70919612  0.88575091  0.74359104    -0.37600
N2704       N  0.61745479  0.94533494  0.86071986    -0.37600
N2705       N  0.73532325  0.94345496  0.78960986    -0.37100
N2706       N  0.59785897  0.87320675  0.83016297    -0.37100
C2707       C  0.60169969  0.88970272  0.75631358    -0.03700
C2708       C  0.57804168  0.89010452  0.77152948    -0.00900
C2709       C  0.56916298  0.91464654  0.78293170     0.04100
C2710       C  0.58302956  0.93881552  0.77796034    -0.03700
C2711       C  0.60692462  0.93823806  0.76344601    -0.00800
C2712       C  0.61488328  0.91429011  0.75055400     0.04100
C2713       C  0.56359383  0.86539715  0.77722227     0.38800
C2714       C  0.62342495  0.96233754  0.76235922     0.38800
C2715       C  0.63773531  0.91461614  0.73276646     0.37200
C2716       C  0.54565236  0.91512807  0.79981161     0.37200
N2717       N  0.65572276  0.91516586  0.71831666    -0.37600
N2718       N  0.52715901  0.91503488  0.81359472    -0.37600
N2719       N  0.63730753  0.98108204  0.76226017    -0.37100
N2720       N  0.55100828  0.84660024  0.78267253    -0.37100
C2721       C  0.67815349  0.18005793  0.74924169    -0.03700
C2722       C  0.68493115  0.18860403  0.72308525    -0.00900
C2723       C  0.69124410  0.21625539  0.71804479     0.04100
C2724       C  0.69260101  0.23535777  0.73939256    -0.03700
C2725       C  0.68672516  0.22651059  0.76557376    -0.00800
C2726       C  0.67781986  0.19977041  0.77004857     0.04100
C2727       C  0.68600732  0.16910779  0.70127673     0.38800
C2728       C  0.69060431  0.24468661  0.78830303     0.38800
C2729       C  0.66560921  0.19361568  0.79548262     0.37200
C2730       C  0.69526796  0.22507035  0.69064412     0.37200
N2731       N  0.65492555  0.18997310  0.81559987    -0.37600
N2732       N  0.69812879  0.23171469  0.66860107    -0.37600
N2733       N  0.69410304  0.25891404  0.80655051    -0.37100
N2734       N  0.68746671  0.15403102  0.68344838    -0.37100
C2735       C  0.71061329  0.14735771  0.78975470    -0.03700
C2736       C  0.73328906  0.15602449  0.77532121    -0.00900
C2737       C  0.75549513  0.16737451  0.78891350     0.04100
C2738       C  0.75575598  0.16912938  0.81721569    -0.03700
C2739       C  0.73315563  0.16054214  0.83170237    -0.00800
C2740       C  0.71066319  0.14983147  0.81806010     0.04100
C2741       C  0.73524326  0.15097555  0.74670234     0.38800
C2742       C  0.73293913  0.16264347  0.86083272     0.38800
C2743       C  0.68746867  0.14216093  0.83349855     0.37200
C2744       C  0.77881741  0.17541549  0.77367433     0.37200
N2745       N  0.66922412  0.13673097  0.84650673    -0.37600
N2746       N  0.79738080  0.18181630  0.76155202    -0.37600
N2747       N  0.73276702  0.16406576  0.88403279    -0.37100
N2748       N  0.73807030  0.14668937  0.72406608    -0.37100
C2749       C  0.63401091  0.14166182  0.72256618    -0.03700
C2750       C  0.63295178  0.12345692  0.70025280    -0.00900
C2751       C  0.61313514  0.12671950  0.67964205     0.04100
C2752       C  0.59524409  0.14902915  0.67999658    -0.03700
C2753       C  0.59864012  0.16912990  0.70004172    -0.00800
C2754       C  0.61675010  0.16490482  0.72192285     0.04100
C2755       C  0.65370664  0.10280681  0.69696836     0.38800
C2756       C  0.58426057  0.19485891  0.69736755     0.38800
C2757       C  0.61649159  0.18436176  0.74378894     0.37200
C2758       C  0.61180726  0.10796168  0.65720709     0.37200
N2759       N  0.61513245  0.20045511  0.76074368    -0.37600
N2760       N  0.61074782  0.09323476  0.63905407    -0.37600
N2761       N  0.57289225  0.21547287  0.69520357    -0.37100
N2762       N  0.67056957  0.08682139  0.69329833    -0.37100
C2763       C  0.68359529  0.08904346  0.79909352    -0.03700
C2764       C  0.71112477  0.08130241  0.80185087    -0.00900
C2765       C  0.72023789  0.06498582  0.82365144     0.04100
C2766       C  0.70213069  0.04826175  0.83757869    -0.03700
C2767       C  0.67440991  0.05555064  0.83496726    -0.00800
C2768       C  0.66564375  0.07703469  0.81752142     0.04100
C2769       C  0.73052078  0.08850549  0.78182452     0.38800
C2770       C  0.65477735  0.04227002  0.85159690     0.38800
C2771       C  0.63904657  0.08846156  0.82147996     0.37200
C2772       C  0.74623329  0.07132831  0.83547491     0.37200
N2773       N  0.61806391  0.09719917  0.82678267    -0.37600
N2774       N  0.76680245  0.07709332  0.84500171    -0.37600
N2775       N  0.63906084  0.03161571  0.86473495    -0.37100
N2776       N  0.74657528  0.09305103  0.76593378    -0.37100
C2777       C  0.58780132  0.05451470  0.75324880    -0.03700
C2778       C  0.58321770  0.08049740  0.76455475    -0.00900
C2779       C  0.60430989  0.09925146  0.76632832     0.04100
C2780       C  0.63069831  0.09116055  0.75920113    -0.03700
C2781       C  0.63522677  0.06495430  0.74838347    -0.00800
C2782       C  0.61323580  0.04796557  0.74275444     0.04100
C2783       C  0.55657537  0.08818893  0.77375119     0.38800
C2784       C  0.66236521  0.05500769  0.74390911     0.38800
C2785       C  0.61646608  0.02483091  0.72493196     0.37200
C2786       C  0.59916156  0.12596814  0.77787924     0.37200
N2787       N  0.61881292  0.00697315  0.70989033    -0.37600
N2788       N  0.59473844  0.14683731  0.78784636    -0.37600
N2789       N  0.68400981  0.04674695  0.74078564    -0.37100
N2790       N  0.53533079  0.09428022  0.78103638    -0.37100
C2791       C  0.32320055  0.17538195  0.78338717    -0.03700
C2792       C  0.34671728  0.17037508  0.79892898    -0.00900
C2793       C  0.36834749  0.15602606  0.78755729     0.04100
C2794       C  0.36557786  0.14536871  0.76139789    -0.03700
C2795       C  0.34114452  0.14841557  0.74691356    -0.00800
C2796       C  0.32049215  0.16452690  0.75731351     0.04100
C2797       C  0.34878273  0.18013744  0.82635848     0.38800
C2798       C  0.33648140  0.13387411  0.72192580     0.38800
C2799       C  0.29603975  0.16912274  0.74140592     0.37200
C2800       C  0.39351143  0.15275923  0.80244017     0.37200
N2801       N  0.27669490  0.17294158  0.72863695    -0.37600
N2802       N  0.41363876  0.15032721  0.81426540    -0.37600
N2803       N  0.33167701  0.12166988  0.70255708    -0.37100
N2804       N  0.35060110  0.18751162  0.84838522    -0.37100
C2805       C  0.39425633  0.17761904  0.72235307    -0.03700
C2806       C  0.39797321  0.19736771  0.74260644    -0.00900
C2807       C  0.37890177  0.21846358  0.74567993     0.04100
C2808       C  0.35897457  0.22268744  0.72575041    -0.03700
C2809       C  0.35703593  0.20468343  0.70375311    -0.00800
C2810       C  0.37461078  0.18226111  0.70206719     0.04100
C2811       C  0.42080150  0.19515965  0.76089949     0.38800
C2812       C  0.33592233  0.20825473  0.68342198     0.38800
C2813       C  0.36996173  0.16283733  0.68074345     0.37200
C2814       C  0.37729945  0.23317430  0.77085288     0.37200
N2815       N  0.36370300  0.14850516  0.66332682    -0.37600
N2816       N  0.37540689  0.24428625  0.79127001    -0.37600
N2817       N  0.31886174  0.21081404  0.66749312    -0.37100
N2818       N  0.43929072  0.19418615  0.77530971    -0.37100
C2819       C  0.44412750  0.14762707  0.70164960    -0.03700
C2820       C  0.43908189  0.15580875  0.67492910    -0.00900
C2821       C  0.45682406  0.17328193  0.66197277     0.04100
C2822       C  0.48443027  0.17311379  0.66897808    -0.03700
C2823       C  0.48992023  0.16613066  0.69654035    -0.00800
C2824       C  0.46950309  0.15459604  0.71290680     0.04100
C2825       C  0.42192719  0.13988161  0.65766631     0.38800
C2826       C  0.51532397  0.17207774  0.70953010     0.38800
C2827       C  0.47504838  0.14950923  0.74111762     0.37200
C2828       C  0.44490935  0.19818877  0.65144692     0.37200
N2829       N  0.48023519  0.14616173  0.76360137    -0.37600
N2830       N  0.43529029  0.21824121  0.64340529    -0.37600
N2831       N  0.53518470  0.17513436  0.72151672    -0.37100
N2832       N  0.41005923  0.12616380  0.64285028    -0.37100
C2833       C  0.38215827  0.06371557  0.82468165    -0.03700
C2834       C  0.40905728  0.06883025  0.81780104    -0.00900
C2835       C  0.41534071  0.08327945  0.79381270     0.04100
C2836       C  0.39494338  0.09068596  0.77461412    -0.03700
C2837       C  0.36811903  0.08305522  0.78091734    -0.00800
C2838       C  0.36174495  0.07173558  0.80630327     0.04100
C2839       C  0.43029523  0.05939273  0.83585525     0.38800
C2840       C  0.34709970  0.08306985  0.76055690     0.38800
C2841       C  0.33387976  0.06733244  0.81320586     0.37200
C2842       C  0.44298834  0.09057718  0.78947846     0.37200
N2843       N  0.31163011  0.06377210  0.81859305    -0.37600
N2844       N  0.46542781  0.09569173  0.78679896    -0.37600
N2845       N  0.32938556  0.08080225  0.74539187    -0.37100
N2846       N  0.44718454  0.05166501  0.85030427    -0.37100
C2847       C  0.43550487  0.08405473  0.72102012    -0.03700
C2848       C  0.42806155  0.05890521  0.73171171    -0.00900
C2849       C  0.44792996  0.04247932  0.74376205     0.04100
C2850       C  0.47504821  0.05006665  0.74131718    -0.03700
C2851       C  0.48211918  0.07112937  0.72374107    -0.00800
C2852       C  0.46173615  0.08643145  0.71142347     0.04100
C2853       C  0.40061504  0.04965764  0.72880745     0.38800
C2854       C  0.50999077  0.07592855  0.71687475     0.38800
C2855       C  0.46614930  0.09559776  0.68429848     0.37200
C2856       C  0.44036825  0.01860298  0.75887667     0.37200
N2857       N  0.47075316  0.10179660  0.66245175    -0.37600
N2858       N  0.43376019  0.99993565  0.77119035    -0.37600
N2859       N  0.53210401  0.07980213  0.71119495    -0.37100
N2860       N  0.37891456  0.04174654  0.72597379    -0.37100
C2861       C  0.67941377  0.47920825  0.28067988    -0.03700
C2862       C  0.68838626  0.45360103  0.29131383    -0.00900
C2863       C  0.70768856  0.45266063  0.31276324     0.04100
C2864       C  0.71686353  0.47733900  0.32409899    -0.03700
C2865       C  0.71624819  0.49911815  0.30567940    -0.00800
C2866       C  0.69389720  0.50244021  0.28852962     0.04100
C2867       C  0.68029072  0.42834608  0.27874842     0.38800
C2868       C  0.74171339  0.50538619  0.29353853     0.38800
C2869       C  0.69074732  0.52774034  0.27382296     0.37200
C2870       C  0.72178437  0.42736472  0.31838431     0.37200
N2871       N  0.68841246  0.54797034  0.26206376    -0.37600
N2872       N  0.73254047  0.40653457  0.32130927    -0.37600
N2873       N  0.76173966  0.50941219  0.28277009    -0.37100
N2874       N  0.67504099  0.40762271  0.26900437    -0.37100
C2875       C  0.54361705  0.55394273  0.22680033    -0.03700
C2876       C  0.54762793  0.52679989  0.23606100    -0.00900
C2877       C  0.57161613  0.51208482  0.22990573     0.04100
C2878       C  0.59174103  0.52411769  0.21416340    -0.03700
C2879       C  0.58937910  0.55248691  0.21043199    -0.00800
C2880       C  0.56415966  0.56532552  0.21145879     0.04100
C2881       C  0.52882763  0.51380413  0.25354177     0.38800
C2882       C  0.61263598  0.56936289  0.21564432     0.38800
C2883       C  0.55980781  0.59035929  0.19665121     0.37200
C2884       C  0.57720356  0.48683171  0.24404227     0.37200
N2885       N  0.55636698  0.60968888  0.18371388    -0.37600
N2886       N  0.58056799  0.46722058  0.25654582    -0.37600
N2887       N  0.63115910  0.58279806  0.22010925    -0.37100
N2888       N  0.51630864  0.50069206  0.26785317    -0.37100
C2889       C  0.58778385  0.41207824  0.19204074    -0.03700
C2890       C  0.59198789  0.40543096  0.21910460    -0.00900
C2891       C  0.57632567  0.38546226  0.23132674     0.04100
C2892       C  0.55813997  0.36991799  0.21542188    -0.03700
C2893       C  0.55951451  0.37237331  0.18703376    -0.00800
C2894       C  0.57301569  0.39449088  0.17549969     0.04100
C2895       C  0.61173497  0.42028471  0.23461055     0.38800
C2896       C  0.54772618  0.35187816  0.16969839     0.38800
C2897       C  0.57165925  0.39945224  0.14687152     0.37200
C2898       C  0.57765168  0.38421412  0.26029280     0.37200
N2899       N  0.57067783  0.40349957  0.12398991    -0.37600
N2900       N  0.58058492  0.38557593  0.28334199    -0.37600
N2901       N  0.53925256  0.33526380  0.15550081    -0.37100
N2902       N  0.62734590  0.43215780  0.24723498    -0.37100
C2903       C  0.84388407  0.79827236  0.98361017    -0.03700
C2904       C  0.82375855  0.80116750  0.00293650    -0.00900
C2905       C  0.80609234  0.82389201  0.00238547     0.04100
C2906       C  0.81111875  0.84640465  0.98550967    -0.03700
C2907       C  0.83361947  0.84471150  0.96828675    -0.00800
C2908       C  0.84897602  0.82022215  0.96640322     0.04100
C2909       C  0.82228516  0.78138727  0.02438005     0.38800
C2910       C  0.84212122  0.86837992  0.95355943     0.38800
C2911       C  0.87089586  0.81792659  0.94771137     0.37200
C2912       C  0.78160734  0.82237461  0.01744302     0.37200
N2913       N  0.88849454  0.81623675  0.93284484    -0.37600
N2914       N  0.76194568  0.81933218  0.02909607    -0.37600
N2915       N  0.85004389  0.88702927  0.94204926    -0.37100
N2916       N  0.82196535  0.76626886  0.04217738    -0.37100
C2917       C  0.94202913  0.69613043  0.92174997    -0.03700
C2918       C  0.95938560  0.67762767  0.90920438    -0.00900
C2919       C  0.97367307  0.68594328  0.88665243     0.04100
C2920       C  0.97276385  0.71368602  0.87878763    -0.03700
C2921       C  0.95340328  0.73148212  0.89009360    -0.00800
C2922       C  0.93690007  0.72191732  0.91036041     0.04100
C2923       C  0.96263313  0.65031439  0.91984046     0.38800
C2924       C  0.95300021  0.76054739  0.88495483     0.38800
C2925       C  0.91501255  0.73894452  0.91988394     0.37200
C2926       C  0.98983691  0.66617452  0.87222008     0.37200
N2927       N  0.89735633  0.75281096  0.92653550    -0.37600
N2928       N  0.00223435  0.64998371  0.86067404    -0.37600
N2929       N  0.95183310  0.78399762  0.88273724    -0.37100
N2930       N  0.96532021  0.62852613  0.92842161    -0.37100
C2931       C  0.92207362  0.72238020  0.02753301    -0.03700
C2932       C  0.94109130  0.74256155  0.01919826    -0.00900
C2933       C  0.96418628  0.74980532  0.03535254     0.04100
C2934       C  0.96809101  0.73954748  0.06161947    -0.03700
C2935       C  0.95063868  0.71827535  0.06932420    -0.00800
C2936       C  0.92916708  0.70886415  0.05209115     0.04100
C2937       C  0.93768440  0.75629761  0.99363111     0.38800
C2938       C  0.95614324  0.70435610  0.09449596     0.38800
C2939       C  0.91661983  0.68336431  0.05875468     0.37200
C2940       C  0.98388431  0.76841067  0.02491082     0.37200
N2941       N  0.90739284  0.66258964  0.06420786    -0.37600
N2942       N  0.99948751  0.78331973  0.01645910    -0.37600
N2943       N  0.96079527  0.69274085  0.11426470    -0.37100
N2944       N  0.93552915  0.76779297  0.97343063    -0.37100
C2945       C  0.80155398  0.17554289  0.02592767    -0.03700
C2946       C  0.82607976  0.17811386  0.01179843    -0.00900
C2947       C  0.83630417  0.20412555  0.00593449     0.04100
C2948       C  0.82595154  0.22750665  0.01866467    -0.03700
C2949       C  0.80377394  0.22476499  0.03560856    -0.00800
C2950       C  0.79009088  0.19965743  0.03702162     0.04100
C2951       C  0.84221173  0.15448152  0.00473495     0.38800
C2952       C  0.79618144  0.24694897  0.05314948     0.38800
C2953       C  0.76366271  0.19934098  0.04876016     0.37200
C2954       C  0.85757762  0.20697530  0.98661960     0.37200
N2955       N  0.74241474  0.19979388  0.05791890    -0.37600
N2956       N  0.87404174  0.20924402  0.97064262    -0.37600
N2957       N  0.79028406  0.26373047  0.06837488    -0.37100
N2958       N  0.85620381  0.13629779  0.99938249    -0.37100
C2959       C  0.96684195  0.30824101  0.95875251    -0.03700
C2960       C  0.96917661  0.30901690  0.93044790    -0.00900
C2961       C  0.99163926  0.29641267  0.91816290     0.04100
C2962       C  0.00960528  0.27962431  0.93325483    -0.03700
C2963       C  0.00975510  0.28245714  0.96133396    -0.00800
C2964       C  0.99042472  0.29954214  0.97351231     0.04100
C2965       C  0.95023797  0.32419561  0.91375515     0.38800
C2966       C  0.02883591  0.26736489  0.97805708     0.38800
C2967       C  0.99639425  0.30977323  0.00031375     0.37200
C2968       C  0.99829967  0.30370059  0.89095364     0.37200
N2969       N  0.00136712  0.31762998  0.02174311    -0.37600
N2970       N  0.00412457  0.31121078  0.86985860    -0.37600
N2971       N  0.04358260  0.25530875  0.99194645    -0.37100
N2972       N  0.93562760  0.33637079  0.89980733    -0.37100
C2973       C  0.91824472  0.28633971  0.05200681    -0.03700
C2974       C  0.93243438  0.26133767  0.04630132    -0.00900
C2975       C  0.95489701  0.25204862  0.06240623     0.04100
C2976       C  0.96093388  0.26380535  0.08775005    -0.03700
C2977       C  0.94586605  0.28759249  0.09443660    -0.00800
C2978       C  0.92757623  0.30028344  0.07556185     0.04100
C2979       C  0.92551900  0.24560784  0.02254267     0.38800
C2980       C  0.94984713  0.30044130  0.12031498     0.38800
C2981       C  0.92216921  0.32909576  0.07912625     0.37200
C2982       C  0.97193907  0.23035034  0.05224765     0.37200
N2983       N  0.91881916  0.35226592  0.08232536    -0.37600
N2984       N  0.98494846  0.21300615  0.04323791    -0.37600
N2985       N  0.95232197  0.31187265  0.14051856    -0.37100
N2986       N  0.92037052  0.23272696  0.00370891    -0.37100
C2987       C  0.70756487  0.48949720  0.69454778    -0.03700
C2988       C  0.73330655  0.50099205  0.69035959    -0.00900
C2989       C  0.74545547  0.50179860  0.66415117     0.04100
C2990       C  0.73236879  0.49139340  0.64058678    -0.03700
C2991       C  0.70610344  0.48073101  0.64483931    -0.00800
C2992       C  0.69426216  0.47955920  0.67110218     0.04100
C2993       C  0.74722086  0.51293695  0.71313968     0.38800
C2994       C  0.68993189  0.47153150  0.62235082     0.38800
C2995       C  0.66825389  0.46709688  0.67373992     0.37200
C2996       C  0.77219983  0.51263835  0.66200711     0.37200
N2997       N  0.64749126  0.45679889  0.67451839    -0.37600
N2998       N  0.79382992  0.52101392  0.66141337    -0.37600
N2999       N  0.67512845  0.46402082  0.60584906    -0.37100
N3000       N  0.75839851  0.52282874  0.73116307    -0.37100
C3001       C  0.60024049  0.41896388  0.81066199    -0.03700
C3002       C  0.57391527  0.42901757  0.81525039    -0.00900
C3003       C  0.55160384  0.41414055  0.80574942     0.04100
C3004       C  0.55559949  0.38674760  0.79715794    -0.03700
C3005       C  0.58060818  0.37450289  0.80425162    -0.00800
C3006       C  0.60361490  0.39072117  0.80682478     0.04100
C3007       C  0.57002463  0.45567666  0.82745818     0.38800
C3008       C  0.58207947  0.34591113  0.81107886     0.38800
C3009       C  0.62972933  0.37868238  0.80189314     0.37200
C3010       C  0.52597583  0.42827525  0.80500729     0.37200
N3011       N  0.65049066  0.36907744  0.79714104    -0.37600
N3012       N  0.50663218  0.44164024  0.80579285    -0.37600
N3013       N  0.58317026  0.32349307  0.81820837    -0.37100
N3014       N  0.56658784  0.47690607  0.83706554    -0.37100
C3015       C  0.61358785  0.51953722  0.77213428    -0.03700
C3016       C  0.59778035  0.51673173  0.74800088    -0.00900
C3017       C  0.57112803  0.52902922  0.74446229     0.04100
C3018       C  0.55799023  0.54447923  0.76489529    -0.03700
C3019       C  0.57108184  0.54278910  0.79034530    -0.00800
C3020       C  0.59762773  0.53026352  0.79408566     0.04100
C3021       C  0.60681101  0.49763537  0.72798028     0.38800
C3022       C  0.55600861  0.55213285  0.81330421     0.38800
C3023       C  0.60698051  0.52623837  0.82149992     0.37200
C3024       C  0.55528753  0.52238566  0.72079089     0.37200
N3025       N  0.61409897  0.52283396  0.84350351    -0.37600
N3026       N  0.54240495  0.51602098  0.70231353    -0.37600
N3027       N  0.54366546  0.55917309  0.83161749    -0.37100
N3028       N  0.61289249  0.48162139  0.71208578    -0.37100
C3029       C  0.76138735  0.36759697  0.83329146    -0.03700
C3030       C  0.77698881  0.36135611  0.81078229    -0.00900
C3031       C  0.76540510  0.34764657  0.78889018     0.04100
C3032       C  0.73864018  0.33811397  0.79053466    -0.03700
C3033       C  0.72366758  0.34322190  0.81398245    -0.00800
C3034       C  0.73427386  0.35989752  0.83419687     0.04100
C3035       C  0.80504266  0.36895464  0.81007851     0.38800
C3036       C  0.69825656  0.32971196  0.81852377     0.38800
C3037       C  0.71813600  0.36628740  0.85745642     0.37200
C3038       C  0.78118971  0.34404654  0.76480146     0.37200
N3039       N  0.70477633  0.37035244  0.87588129    -0.37600
N3040       N  0.79390451  0.34129975  0.74569661    -0.37600
N3041       N  0.67820718  0.31877792  0.82249895    -0.37100
N3042       N  0.82749227  0.37469844  0.80873293    -0.37100
C3043       C  0.80162144  0.33466560  0.86612705    -0.03700
C3044       C  0.82980596  0.33209693  0.86398030    -0.00900
C3045       C  0.84200957  0.30633808  0.86025940     0.04100
C3046       C  0.82597298  0.28262071  0.85696123    -0.03700
C3047       C  0.79749228  0.28574397  0.85712063    -0.00800
C3048       C  0.78555352  0.31130519  0.86262737     0.04100
C3049       C  0.84652188  0.35618555  0.86546873     0.38800
C3050       C  0.77981323  0.26270506  0.85257579     0.38800
C3051       C  0.75687312  0.31216353  0.86731535     0.37200
C3052       C  0.87123268  0.30490916  0.85999650     0.37200
N3053       N  0.73415739  0.31053840  0.87172177    -0.37600
N3054       N  0.89452273  0.30397897  0.86013244    -0.37600
N3055       N  0.76545506  0.24464132  0.84880961    -0.37100
N3056       N  0.85997465  0.37526374  0.86629044    -0.37100
C3057       C  0.75020117  0.42480193  0.85337571    -0.03700
C3058       C  0.72464315  0.43415266  0.86248716    -0.00900
C3059       C  0.70580556  0.44974811  0.84548188     0.04100
C3060       C  0.71100589  0.45696747  0.81781978    -0.03700
C3061       C  0.73847037  0.45171567  0.81093375    -0.00800
C3062       C  0.75693406  0.43537049  0.82757881     0.04100
C3063       C  0.71776125  0.42849032  0.89002876     0.38800
C3064       C  0.74997237  0.46723372  0.78952877     0.38800
C3065       C  0.78451743  0.43233475  0.81918133     0.37200
C3066       C  0.68149697  0.46014323  0.85774589     0.37200
N3067       N  0.80663340  0.43121450  0.81232856    -0.37600
N3068       N  0.66220766  0.46862970  0.86765151    -0.37600
N3069       N  0.76082934  0.48000588  0.77359437    -0.37100
N3070       N  0.71207614  0.42419902  0.91205103    -0.37100
C3071       C  0.81387081  0.36223969  0.92152816    -0.03700
C3072       C  0.80960653  0.33509801  0.93064234    -0.00900
C3073       C  0.82895316  0.32046612  0.94686056     0.04100
C3074       C  0.84876128  0.33403594  0.96271986    -0.03700
C3075       C  0.85255380  0.36191307  0.95504815    -0.00800
C3076       C  0.83685852  0.37492390  0.93366077     0.04100
C3077       C  0.78380209  0.32248298  0.92658205     0.38800
C3078       C  0.87383853  0.37714906  0.96813680     0.38800
C3079       C  0.84601441  0.40062030  0.92328809     0.37200
C3080       C  0.83158251  0.29157845  0.94169999     0.37200
N3081       N  0.85467080  0.42073017  0.91518443    -0.37600
N3082       N  0.83360871  0.26862120  0.93655536    -0.37600
N3083       N  0.89084705  0.38936088  0.97855377    -0.37100
N3084       N  0.76307358  0.31205137  0.92542738    -0.37100
C3085       C  0.79612596  0.45294594  0.96026338    -0.03700
C3086       C  0.78598396  0.42681369  0.96406553    -0.00900
C3087       C  0.77693237  0.41202790  0.94187641     0.04100
C3088       C  0.78333784  0.42086656  0.91575631    -0.03700
C3089       C  0.79770633  0.44522499  0.91225881    -0.00800
C3090       C  0.80400112  0.46138049  0.93474509     0.04100
C3091       C  0.78399901  0.41596828  0.99104235     0.38800
C3092       C  0.80754665  0.45292649  0.88618434     0.38800
C3093       C  0.81853752  0.48662622  0.93194094     0.37200
C3094       C  0.76057779  0.38813729  0.94608654     0.37200
N3095       N  0.83032403  0.50667246  0.92972875    -0.37600
N3096       N  0.74725672  0.36940193  0.94988631    -0.37600
N3097       N  0.81622514  0.45949998  0.86582729    -0.37100
N3098       N  0.78328604  0.40701991  0.01249611    -0.37100
C3099       C  0.75585580  0.64895513  0.81854644    -0.03700
C3100       C  0.74742384  0.67598516  0.81233335    -0.00900
C3101       C  0.73755477  0.68289700  0.78633662     0.04100
C3102       C  0.73572473  0.66300779  0.76569670    -0.03700
C3103       C  0.74408902  0.63609386  0.77162689    -0.00800
C3104       C  0.75401004  0.62908924  0.79771693     0.04100
C3105       C  0.74691161  0.69684480  0.83288290     0.38800
C3106       C  0.74316392  0.61560231  0.75061017     0.38800
C3107       C  0.76226475  0.60116285  0.80256435     0.37200
C3108       C  0.72822086  0.71064624  0.78118806     0.37200
N3109       N  0.76855676  0.57848501  0.80454410    -0.37600
N3110       N  0.72079276  0.73267400  0.77681945    -0.37600
N3111       N  0.74234189  0.59921453  0.73387951    -0.37100
N3112       N  0.74543818  0.71478843  0.84787132    -0.37100
C3113       C  0.81246996  0.66087804  0.84509259    -0.03700
C3114       C  0.81269098  0.66301581  0.81709773    -0.00900
C3115       C  0.81142833  0.68924241  0.80576517     0.04100
C3116       C  0.81298147  0.71214311  0.82338122    -0.03700
C3117       C  0.82335643  0.70769938  0.84978666    -0.00800
C3118       C  0.82702810  0.68091684  0.85847007     0.04100
C3119       C  0.81611670  0.63883145  0.80087135     0.38800
C3120       C  0.83150554  0.72946133  0.86768328     0.38800
C3121       C  0.85275340  0.67292086  0.86993348     0.37200
C3122       C  0.80704171  0.69200173  0.77706254     0.37200
N3123       N  0.87375643  0.66591962  0.87774173    -0.37600
N3124       N  0.80349920  0.69399643  0.75411857    -0.37600
N3125       N  0.83804026  0.74632992  0.88261620    -0.37100
N3126       N  0.81955927  0.61970572  0.78766586    -0.37100
C3127       C  0.72299137  0.61355800  0.86116044    -0.03700
C3128       C  0.70857952  0.61738524  0.83688870    -0.00900
C3129       C  0.69791364  0.59468321  0.82332063     0.04100
C3130       C  0.69604438  0.56963113  0.83703861    -0.03700
C3131       C  0.70129164  0.56945189  0.86498828    -0.00800
C3132       C  0.71356570  0.59221453  0.87736293     0.04100
C3133       C  0.69769726  0.64415955  0.83079354     0.38800
C3134       C  0.69208284  0.54695746  0.88106218     0.38800
C3135       C  0.70929332  0.59698138  0.90562738     0.37200
C3136       C  0.68989409  0.59718267  0.79536965     0.37200
N3137       N  0.70497497  0.60067417  0.92811247    -0.37600
N3138       N  0.68373683  0.59895731  0.77292424    -0.37600
N3139       N  0.68440742  0.52907546  0.89384859    -0.37100
N3140       N  0.68801146  0.66531344  0.82649634    -0.37100
C3141       C  0.80634065  0.65575312  0.90708824    -0.03700
C3142       C  0.82716629  0.64105038  0.92033173    -0.00900
C3143       C  0.84295291  0.65338270  0.94116748     0.04100
C3144       C  0.83962261  0.68166615  0.94830983    -0.03700
C3145       C  0.81582532  0.69438976  0.93783432    -0.00800
C3146       C  0.80036373  0.68224877  0.91673858     0.04100
C3147       C  0.83223966  0.61295363  0.91268743     0.38800
C3148       C  0.80346176  0.71697518  0.95166838     0.38800
C3149       C  0.77611592  0.69609581  0.90724464     0.37200
C3150       C  0.86126466  0.63590773  0.95648353     0.37200
N3151       N  0.75637237  0.70746618  0.90143044    -0.37600
N3152       N  0.87566597  0.62177300  0.96873324    -0.37600
N3153       N  0.79190345  0.73485292  0.96154717    -0.37100
N3154       N  0.83625022  0.59046979  0.90673443    -0.37100
C3155       C  0.76655023  0.60642846  0.91147729    -0.03700
C3156       C  0.76968716  0.57860628  0.90432428    -0.00900
C3157       C  0.76710717  0.55811025  0.92373021     0.04100
C3158       C  0.76626162  0.56515209  0.95107615    -0.03700
C3159       C  0.76682066  0.59284241  0.95876676    -0.00800
C3160       C  0.76510637  0.61341862  0.93903404     0.04100
C3161       C  0.77627811  0.57068059  0.87722350     0.38800
C3162       C  0.76846099  0.60021196  0.98699499     0.38800
C3163       C  0.75997318  0.64124260  0.94744046     0.37200
C3164       C  0.76517195  0.52982805  0.91535211     0.37200
N3165       N  0.75540606  0.66301600  0.95525537    -0.37600
N3166       N  0.76301615  0.50748091  0.90823344    -0.37600
N3167       N  0.77022235  0.60613185  0.00945771    -0.37100
N3168       N  0.78224150  0.56326042  0.85609956    -0.37100
C3169       C  0.69238638  0.68895420  0.14176704    -0.03700
C3170       C  0.66996081  0.67864908  0.15466462    -0.00900
C3171       C  0.67101372  0.67558656  0.18278073     0.04100
C3172       C  0.69399359  0.68524162  0.19761777    -0.03700
C3173       C  0.71176218  0.70273660  0.18424082    -0.00800
C3174       C  0.70772731  0.70751173  0.15676650     0.04100
C3175       C  0.64620142  0.67160311  0.13907029     0.38800
C3176       C  0.73468433  0.71504086  0.19759008     0.38800
C3177       C  0.70632771  0.73561349  0.14837446     0.37200
C3178       C  0.64991914  0.66001912  0.19505526     0.37200
N3179       N  0.70409108  0.75811980  0.14166157    -0.37600
N3180       N  0.63318870  0.64672972  0.20391774    -0.37600
N3181       N  0.75323272  0.72467767  0.20807806    -0.37100
N3182       N  0.62693596  0.66628990  0.12689375    -0.37100
C3183       C  0.74301413  0.70454735  0.11018506    -0.03700
C3184       C  0.76527792  0.70196425  0.12785044    -0.00900
C3185       C  0.78088185  0.72465671  0.13378079     0.04100
C3186       C  0.77383279  0.75001045  0.12240625    -0.03700
C3187       C  0.75280544  0.75241695  0.10330625    -0.00800
C3188       C  0.73693662  0.72958537  0.09748782     0.04100
C3189       C  0.77030600  0.67671088  0.14219194     0.38800
C3190       C  0.74583304  0.77885985  0.09200778     0.38800
C3191       C  0.71187521  0.73295037  0.08254218     0.37200
C3192       C  0.80293997  0.72241780  0.15323660     0.37200
N3193       N  0.69151389  0.73612701  0.07129513    -0.37600
N3194       N  0.82038007  0.72062170  0.16884406    -0.37600
N3195       N  0.74019201  0.80002241  0.08320043    -0.37100
N3196       N  0.77456858  0.65693783  0.15422260    -0.37100
C3197       C  0.68303517  0.62479001  0.12537338    -0.03700
C3198       C  0.69025931  0.61380428  0.15073623    -0.00900
C3199       C  0.68003731  0.58847505  0.15858698     0.04100
C3200       C  0.66266864  0.57395488  0.14131685    -0.03700
C3201       C  0.65385019  0.58569686  0.11698458    -0.00800
C3202       C  0.66342231  0.61144454  0.10937197     0.04100
C3203       C  0.71042204  0.62667464  0.16766284     0.38800
C3204       C  0.63600741  0.57065929  0.09929214     0.38800
C3205       C  0.65275491  0.62447656  0.08532191     0.37200
C3206       C  0.68850985  0.57642637  0.18393626     0.37200
N3207       N  0.64352847  0.63506608  0.06651814    -0.37600
N3208       N  0.69544298  0.56667693  0.20405257    -0.37600
N3209       N  0.62202956  0.55864733  0.08485152    -0.37100
N3210       N  0.72687158  0.63577780  0.18158229    -0.37100
C3211       C  0.76028414  0.66220033  0.07294810    -0.03700
C3212       C  0.78530336  0.64988106  0.08046831    -0.00900
C3213       C  0.80946245  0.65865291  0.06877616     0.04100
C3214       C  0.80927847  0.68092172  0.05110321    -0.03700
C3215       C  0.78435260  0.69302842  0.04372904    -0.00800
C3216       C  0.76011135  0.68233063  0.05286130     0.04100
C3217       C  0.78720743  0.62830848  0.10005677     0.38800
C3218       C  0.78316277  0.71709911  0.02713142     0.38800
C3219       C  0.73498663  0.69196363  0.04085745     0.37200
C3220       C  0.83453680  0.64401532  0.07393037     0.37200
N3221       N  0.71566791  0.70014977  0.03020522    -0.37600
N3222       N  0.85442167  0.63206036  0.07789555    -0.37600
N3223       N  0.78008211  0.73682415  0.01477451    -0.37100
N3224       N  0.79145969  0.61114633  0.11548316    -0.37100
C3225       C  0.72612513  0.56209354  0.05317892    -0.03700
C3226       C  0.71462811  0.58459909  0.03977173    -0.00900
C3227       C  0.71217358  0.60944613  0.05338391     0.04100
C3228       C  0.72136707  0.61152536  0.08030668    -0.03700
C3229       C  0.72975728  0.58778151  0.09439835    -0.00800
C3230       C  0.73100645  0.56285723  0.08087677     0.04100
C3231       C  0.70609613  0.58230679  0.01182368     0.38800
C3232       C  0.73881985  0.58841634  0.12214333     0.38800
C3233       C  0.73593887  0.53777700  0.09562293     0.37200
C3234       C  0.69965970  0.63236242  0.03957854     0.37200
N3235       N  0.73870517  0.51809305  0.10816262    -0.37600
N3236       N  0.68874979  0.64966857  0.02782586    -0.37600
N3237       N  0.74709088  0.58713211  0.14397081    -0.37100
N3238       N  0.69915144  0.58023262  0.98963012    -0.37100
C3239       C  0.77750737  0.33687490  0.16799008    -0.03700
C3240       C  0.80500086  0.33110490  0.17335762    -0.00900
C3241       C  0.81280000  0.30533899  0.18312275     0.04100
C3242       C  0.79304179  0.28598692  0.18840266    -0.03700
C3243       C  0.76583491  0.29111027  0.18169396    -0.00800
C3244       C  0.75818615  0.31633727  0.17090920     0.04100
C3245       C  0.82535599  0.35163160  0.17064221     0.38800
C3246       C  0.74577170  0.27023265  0.18555772     0.38800
C3247       C  0.73043363  0.32112310  0.16252616     0.37200
C3248       C  0.84099573  0.29902908  0.18846348     0.37200
N3249       N  0.70833832  0.32459994  0.15551899    -0.37600
N3250       N  0.86354672  0.29416307  0.19245390    -0.37600
N3251       N  0.72986058  0.25355759  0.18866264    -0.37100
N3252       N  0.84290973  0.36684013  0.16965849    -0.37100
C3253       C  0.73224804  0.34382504  0.25367709    -0.03700
C3254       C  0.75859380  0.35159311  0.24722031    -0.00900
C3255       C  0.76348816  0.36644902  0.22342880     0.04100
C3256       C  0.74263724  0.37150586  0.20417394    -0.03700
C3257       C  0.71586501  0.36584479  0.21197098    -0.00800
C3258       C  0.71083729  0.35243847  0.23668605     0.04100
C3259       C  0.78097253  0.34334121  0.26453941     0.38800
C3260       C  0.69305220  0.37309855  0.19501200     0.38800
C3261       C  0.68344570  0.34796335  0.24501370     0.37200
C3262       C  0.78981387  0.37803730  0.21972873     0.37200
N3263       N  0.66154441  0.34514975  0.25190474    -0.37600
N3264       N  0.81070385  0.38792308  0.21776718    -0.37600
N3265       N  0.67367089  0.37835392  0.18283144    -0.37100
N3266       N  0.79890134  0.33655170  0.27816519    -0.37100
C3267       C  0.72008094  0.42133632  0.16408200    -0.03700
C3268       C  0.72569792  0.44256644  0.18234213    -0.00900
C3269       C  0.70860610  0.46560796  0.18307708     0.04100
C3270       C  0.68337136  0.46495451  0.16964405    -0.03700
C3271       C  0.68030109  0.44654917  0.14817600    -0.00800
C3272       C  0.69742612  0.42373544  0.14660286     0.04100
C3273       C  0.74825371  0.44048377  0.20105437     0.38800
C3274       C  0.66019923  0.45156519  0.12723045     0.38800
C3275       C  0.68912521  0.40114851  0.12978404     0.37200
C3276       C  0.71722090  0.49007948  0.19700662     0.37200
N3277       N  0.68083494  0.38307847  0.11734782    -0.37600
N3278       N  0.72428209  0.50948906  0.20817526    -0.37600
N3279       N  0.64426037  0.45562279  0.11045947    -0.37100
N3280       N  0.76605870  0.43912539  0.21627858    -0.37100
C3281       C  0.82442641  0.35617354  0.07122534    -0.03700
C3282       C  0.80024359  0.34202435  0.07380711    -0.00900
C3283       C  0.78426135  0.34598259  0.09673425     0.04100
C3284       C  0.79039930  0.36708255  0.11524609    -0.03700
C3285       C  0.81372859  0.38279656  0.11115625    -0.00800
C3286       C  0.83107332  0.37661747  0.08983039     0.04100
C3287       C  0.79149327  0.32440201  0.05210592     0.38800
C3288       C  0.82107227  0.40444224  0.12955185     0.38800
C3289       C  0.85578152  0.39155724  0.08657273     0.37200
C3290       C  0.76215317  0.32773722  0.10122306     0.37200
N3291       N  0.87547906  0.40353534  0.08398177    -0.37600
N3292       N  0.74487574  0.31245194  0.10398393    -0.37600
N3293       N  0.82833649  0.42126325  0.14417772    -0.37100
N3294       N  0.78443979  0.31126831  0.03405198    -0.37100
C3295       C  0.75318502  0.41742670  0.11192912    -0.03700
C3296       C  0.76595741  0.44280111  0.11482940    -0.00900
C3297       C  0.76958310  0.45953025  0.09236168     0.04100
C3298       C  0.75723695  0.45292948  0.06737260    -0.03700
C3299       C  0.74268857  0.42843269  0.06492849    -0.00800
C3300       C  0.74194735  0.41013455  0.08667239     0.04100
C3301       C  0.77643650  0.45181349  0.14062969     0.38800
C3302       C  0.72917394  0.42134076  0.03982440     0.38800
C3303       C  0.72940300  0.38394306  0.08254838     0.37200
C3304       C  0.78631560  0.48349394  0.09537465     0.37200
N3305       N  0.71892061  0.36348134  0.07798702    -0.37600
N3306       N  0.79979586  0.50243889  0.09785941    -0.37600
N3307       N  0.71829417  0.41562644  0.01990580    -0.37100
N3308       N  0.78552808  0.46019341  0.16047106    -0.37100
C3309       C  0.23619093  0.15861647  0.00842485    -0.03700
C3310       C  0.24864442  0.18176850  0.01959686    -0.00900
C3311       C  0.23525889  0.20743565  0.01957790     0.04100
C3312       C  0.20737570  0.20959528  0.01272042    -0.03700
C3313       C  0.19432298  0.18541826  0.00384676    -0.00800
C3314       C  0.20924098  0.16104937  0.99938877     0.04100
C3315       C  0.27607346  0.17958024  0.02972231     0.38800
C3316       C  0.16531550  0.18470776  0.00046852     0.38800
C3317       C  0.19684630  0.13910746  0.98445688     0.37200
C3318       C  0.25113039  0.23141939  0.02513193     0.37200
N3319       N  0.18619327  0.12251087  0.97179366    -0.37600
N3320       N  0.26433045  0.25020412  0.02965677    -0.37600
N3321       N  0.14216446  0.18379089  0.99778080    -0.37100
N3322       N  0.29822288  0.17854603  0.03722166    -0.37100
C3323       C  0.07812259  0.28171194  0.06531568    -0.03700
C3324       C  0.07240079  0.25377096  0.06240078    -0.00900
C3325       C  0.04815929  0.24293159  0.07221441     0.04100
C3326       C  0.02956895  0.25965566  0.08635931    -0.03700
C3327       C  0.03459651  0.28808729  0.08740408    -0.00800
C3328       C  0.05851736  0.29892528  0.07665955     0.04100
C3329       C  0.09165730  0.23621745  0.04893796     0.38800
C3330       C  0.01675533  0.30636730  0.10156109     0.38800
C3331       C  0.06306651  0.32802818  0.07700459     0.37200
C3332       C  0.04245300  0.21452417  0.06704612     0.37200
N3333       N  0.06664717  0.35129165  0.07711551    -0.37600
N3334       N  0.03866151  0.19187312  0.06186931    -0.37600
N3335       N  0.00388100  0.32217924  0.11304077    -0.37100
N3336       N  0.10709156  0.22244652  0.03802146    -0.37100
C3337       C  0.07742399  0.26849183  0.93839779    -0.03700
C3338       C  0.09738164  0.25067542  0.94915714    -0.00900
C3339       C  0.12244022  0.26057434  0.95759020     0.04100
C3340       C  0.12378074  0.28665022  0.96893077    -0.03700
C3341       C  0.10308121  0.30547092  0.96041159    -0.00800
C3342       C  0.08140739  0.29674388  0.94311890     0.04100
C3343       C  0.09034315  0.22397264  0.95844929     0.38800
C3344       C  0.10375220  0.33346430  0.96962432     0.38800
C3345       C  0.06375019  0.31671417  0.93047561     0.37200
C3346       C  0.14475794  0.25209015  0.94126312     0.37200
N3347       N  0.05013479  0.33302488  0.92014740    -0.37600
N3348       N  0.16257577  0.24547888  0.92794979    -0.37600
N3349       N  0.10417196  0.35572468  0.97734863    -0.37100
N3350       N  0.08469497  0.20323642  0.96768606    -0.37100
C3351       C  0.34156820  0.50718185  0.71378762    -0.03700
C3352       C  0.31330776  0.50344404  0.71045514    -0.00900
C3353       C  0.30168296  0.49796401  0.68480183     0.04100
C3354       C  0.31547243  0.50423344  0.66110911    -0.03700
C3355       C  0.34279115  0.51217457  0.66427852    -0.00800
C3356       C  0.35636195  0.51004690  0.68975991     0.04100
C3357       C  0.29531004  0.50790636  0.73266419     0.38800
C3358       C  0.35696667  0.52402107  0.64217420     0.38800
C3359       C  0.38549195  0.50930668  0.69057037     0.37200
C3360       C  0.27493090  0.48681787  0.68317567     0.37200
N3361       N  0.40878237  0.50831560  0.69088512    -0.37600
N3362       N  0.25345504  0.47799681  0.68296332    -0.37600
N3363       N  0.36908416  0.53431239  0.62541954    -0.37100
N3364       N  0.28068073  0.51173954  0.75015394    -0.37100
C3365       C  0.44081224  0.41971073  0.79128856    -0.03700
C3366       C  0.45139753  0.40172534  0.81108098    -0.00900
C3367       C  0.47517074  0.38652957  0.80605334     0.04100
C3368       C  0.48859571  0.39018551  0.78163624    -0.03700
C3369       C  0.47837573  0.40899999  0.76263846    -0.00800
C3370       C  0.45315538  0.42110678  0.76614015     0.04100
C3371       C  0.43853488  0.39990381  0.83687760     0.38800
C3372       C  0.49595822  0.41963838  0.74234488     0.38800
C3373       C  0.44056725  0.43658758  0.74445103     0.37200
C3374       C  0.48746076  0.36974350  0.82688712     0.37200
N3375       N  0.43040789  0.44881603  0.72712406    -0.37600
N3376       N  0.49750966  0.35662901  0.84364056    -0.37600
N3377       N  0.51046734  0.42918921  0.72716467    -0.37100
N3378       N  0.42811637  0.39836016  0.85742428    -0.37100
C3379       C  0.43252844  0.53204018  0.79441972    -0.03700
C3380       C  0.45928648  0.52122235  0.80037213    -0.00900
C3381       C  0.48254882  0.53102321  0.78678937     0.04100
C3382       C  0.48270460  0.55799249  0.77681741    -0.03700
C3383       C  0.45823735  0.57276082  0.78238646    -0.00800
C3384       C  0.43307624  0.55916253  0.78507010     0.04100
C3385       C  0.46440686  0.50491904  0.82425410     0.38800
C3386       C  0.45993577  0.59972321  0.79395406     0.38800
C3387       C  0.40827271  0.57405766  0.78009349     0.37200
C3388       C  0.50578178  0.51327211  0.78449196     0.37200
N3389       N  0.38837616  0.58588067  0.77578457    -0.37600
N3390       N  0.52367660  0.49808507  0.78270218    -0.37600
N3391       N  0.46079059  0.62069777  0.80457808    -0.37100
N3392       N  0.46868410  0.49195585  0.84328786    -0.37100
C3393       C  0.18637289  0.79707672  0.01316565    -0.03700
C3394       C  0.17538084  0.82030128  0.00012901    -0.00900
C3395       C  0.18845929  0.84570240  0.00186878     0.04100
C3396       C  0.21312724  0.84800167  0.01626332    -0.03700
C3397       C  0.22505000  0.82420683  0.02741368    -0.00800
C3398       C  0.21150594  0.79912045  0.02651765     0.04100
C3399       C  0.15080116  0.81781442  0.98431133     0.38800
C3400       C  0.25235961  0.82489062  0.03789800     0.38800
C3401       C  0.22361600  0.77559136  0.03967760     0.37200
C3402       C  0.17611298  0.86910152  0.98879086     0.37200
N3403       N  0.23419201  0.75739838  0.05040835    -0.37600
N3404       N  0.16512404  0.88709017  0.97811500    -0.37600
N3405       N  0.27454859  0.82429881  0.04527882    -0.37100
N3406       N  0.13114610  0.81581458  0.97173047    -0.37100
C3407       C  0.03839527  0.74837084  0.06384805    -0.03700
C3408       C  0.04211100  0.72120885  0.05453019    -0.00900
C3409       C  0.06573620  0.71326218  0.03988163     0.04100
C3410       C  0.08803124  0.73136672  0.03660550    -0.03700
C3411       C  0.08536543  0.75652736  0.05037373    -0.00800
C3412       C  0.05979821  0.76633649  0.05853175     0.04100
C3413       C  0.02257763  0.70073959  0.06104320     0.38800
C3414       C  0.10796556  0.76700186  0.06554644     0.38800
C3415       C  0.05550005  0.79548327  0.05914112     0.37200
C3416       C  0.06783629  0.68533332  0.03045386     0.37200
N3417       N  0.05238779  0.81886518  0.05803223    -0.37600
N3418       N  0.06952776  0.66298809  0.02309266    -0.37600
N3419       N  0.12548207  0.77515355  0.07878206    -0.37100
N3420       N  0.00768068  0.68364684  0.06614092    -0.37100
C3421       C  0.03367193  0.70628008  0.89456801    -0.03700
C3422       C  0.05462958  0.68724784  0.88965188    -0.00900
C3423       C  0.07120610  0.67830154  0.91111567     0.04100
C3424       C  0.06565143  0.68758436  0.93725660    -0.03700
C3425       C  0.03911582  0.69668313  0.94199978    -0.00800
C3426       C  0.02490991  0.70983687  0.92126521     0.04100
C3427       C  0.05876675  0.67645919  0.86295124     0.38800
C3428       C  0.02671147  0.69309349  0.96789418     0.38800
C3429       C  0.00489239  0.73006109  0.92874019     0.37200
C3430       C  0.09211027  0.65811965  0.90653915     0.37200
N3431       N  0.98997116  0.74657791  0.93626790    -0.37600
N3432       N  0.10855778  0.64172386  0.90267410    -0.37600
N3433       N  0.01643491  0.69036342  0.98838756    -0.37100
N3434       N  0.06181742  0.66678154  0.84201207    -0.37100
C3435       C  0.23735285  0.69505813  0.87652708    -0.03700
C3436       C  0.21037404  0.70049547  0.86908611    -0.00900
C3437       C  0.20376296  0.72330931  0.85275123     0.04100
C3438       C  0.22412585  0.74072841  0.84299449    -0.03700
C3439       C  0.25104887  0.73540728  0.85132389    -0.00800
C3440       C  0.25715236  0.71402855  0.86940447     0.04100
C3441       C  0.18934324  0.68221191  0.87739937     0.38800
C3442       C  0.27293935  0.75113120  0.84075763     0.38800
C3443       C  0.28360879  0.71257997  0.88207319     0.37200
C3444       C  0.17593549  0.72731217  0.84478860     0.37200
N3445       N  0.30435002  0.71242025  0.89298700    -0.37600
N3446       N  0.15339648  0.72927178  0.83904054    -0.37600
N3447       N  0.29064759  0.76285760  0.83165837    -0.37100
N3448       N  0.17231911  0.66779717  0.88373187    -0.37100
C3449       C  0.27072715  0.65747515  0.84427085    -0.03700
C3450       C  0.29752714  0.66393148  0.83823006    -0.00900
C3451       C  0.30416440  0.67099535  0.81190369     0.04100
C3452       C  0.28442737  0.66988661  0.79135047    -0.03700
C3453       C  0.25767084  0.66376876  0.79719688    -0.00800
C3454       C  0.25074120  0.65772904  0.82370079     0.04100
C3455       C  0.31840479  0.66328194  0.85883365     0.38800
C3456       C  0.23742701  0.66344766  0.77586868     0.38800
C3457       C  0.22350403  0.64953250  0.82929599     0.37200
C3458       C  0.33130690  0.67951544  0.80590940     0.37200
N3459       N  0.20184943  0.64217678  0.83300781    -0.37600
N3460       N  0.35284828  0.68662871  0.80124544    -0.37600
N3461       N  0.22128997  0.66326491  0.75885223    -0.37100
N3462       N  0.33567673  0.66310943  0.87470390    -0.37100
C3463       C  0.21875282  0.66461844  0.93178314    -0.03700
C3464       C  0.19726878  0.64865753  0.94201399    -0.00900
C3465       C  0.17832374  0.65955519  0.96109174     0.04100
C3466       C  0.17741018  0.68789097  0.96789571    -0.03700
C3467       C  0.19533021  0.70413568  0.95293723    -0.00800
C3468       C  0.21796911  0.69250496  0.93969448     0.04100
C3469       C  0.19170033  0.62208578  0.93090484     0.38800
C3470       C  0.18756869  0.73162795  0.94530178     0.38800
C3471       C  0.24093701  0.70978378  0.93615102     0.37200
C3472       C  0.15788874  0.64168102  0.97137730     0.37200
N3473       N  0.25898672  0.72435295  0.93487674    -0.37600
N3474       N  0.14158803  0.62728002  0.97937700    -0.37600
N3475       N  0.18136775  0.75343880  0.93860157    -0.37100
N3476       N  0.18475601  0.60122930  0.92265058    -0.37100
C3477       C  0.33173905  0.57034957  0.85225529    -0.03700
C3478       C  0.30736855  0.57583084  0.83818835    -0.00900
C3479       C  0.28655131  0.59256897  0.84942247     0.04100
C3480       C  0.29007020  0.60636857  0.87457408    -0.03700
C3481       C  0.31519990  0.60138087  0.88816836    -0.00800
C3482       C  0.33527759  0.58319980  0.87746166     0.04100
C3483       C  0.30404448  0.56453429  0.81143873     0.38800
C3484       C  0.32159405  0.61611457  0.91254465     0.38800
C3485       C  0.35981832  0.57740497  0.89253023     0.37200
C3486       C  0.26102410  0.59364123  0.83514878     0.37200
N3487       N  0.37947009  0.57260863  0.90448284    -0.37600
N3488       N  0.24111850  0.59268533  0.82281917    -0.37600
N3489       N  0.32796202  0.62799776  0.93164506    -0.37100
N3490       N  0.30163215  0.55585420  0.78992731    -0.37100
C3491       C  0.25470117  0.60717145  0.92855352    -0.03700
C3492       C  0.26602066  0.61093656  0.95442032    -0.00900
C3493       C  0.26728650  0.58893575  0.97251743     0.04100
C3494       C  0.25500073  0.56406591  0.96547271    -0.03700
C3495       C  0.24051289  0.56189761  0.94091033    -0.00800
C3496       C  0.24277635  0.58222477  0.92152594     0.04100
C3497       C  0.27675473  0.63721596  0.96216639     0.38800
C3498       C  0.22187494  0.53975379  0.93591556     0.38800
C3499       C  0.23078643  0.57789766  0.89510736     0.37200
C3500       C  0.27921861  0.59262371  0.99903907     0.37200
N3501       N  0.22024731  0.57359181  0.87469103    -0.37600
N3502       N  0.28841287  0.59571898  0.02031369    -0.37600
N3503       N  0.20667797  0.52241680  0.93209081    -0.37100
N3504       N  0.28540949  0.65819538  0.96817553    -0.37100
C3505       C  0.27732440  0.32075080  0.86656237    -0.03700
C3506       C  0.25170702  0.30863805  0.86604000    -0.00900
C3507       C  0.24959121  0.28043971  0.86150221     0.04100
C3508       C  0.27245269  0.26493232  0.85452956    -0.03700
C3509       C  0.29811728  0.27631378  0.85742696    -0.00800
C3510       C  0.30052790  0.30390961  0.86471840     0.04100
C3511       C  0.22737415  0.32492312  0.86827721     0.38800
C3512       C  0.32190752  0.26012362  0.85177643     0.38800
C3513       C  0.32676955  0.31485051  0.87119023     0.37200
C3514       C  0.22380999  0.26722674  0.86338385     0.37200
N3515       N  0.34768754  0.32316477  0.87726992    -0.37600
N3516       N  0.20346266  0.25640560  0.86570887    -0.37600
N3517       N  0.34118483  0.24758636  0.84730195    -0.37100
N3518       N  0.20734304  0.33710876  0.86958050    -0.37100
C3519       C  0.31160594  0.33186498  0.77129036    -0.03700
C3520       C  0.33251056  0.34263316  0.78772739    -0.00900
C3521       C  0.32678084  0.35432074  0.81314392     0.04100
C3522       C  0.30002602  0.35584038  0.82241397    -0.03700
C3523       C  0.27897999  0.34747902  0.80490004    -0.00800
C3524       C  0.28464361  0.33563121  0.77966717     0.04100
C3525       C  0.36012116  0.34167352  0.77884879     0.38800
C3526       C  0.25119676  0.35314950  0.81175491     0.38800
C3527       C  0.26234710  0.32868134  0.76179444     0.37200
C3528       C  0.34872673  0.36427652  0.82980665     0.37200
N3529       N  0.24434801  0.32343164  0.74775273    -0.37600
N3530       N  0.36656128  0.37213743  0.84275538    -0.37600
N3531       N  0.22896048  0.35838059  0.81628954    -0.37100
N3532       N  0.38225379  0.34155040  0.77200697    -0.37100
C3533       C  0.25685931  0.35789259  0.91337796    -0.03700
C3534       C  0.26251607  0.33606824  0.93146595    -0.00900
C3535       C  0.24412889  0.32943957  0.95198075     0.04100
C3536       C  0.22019039  0.34469766  0.95528407    -0.03700
C3537       C  0.21464528  0.36655214  0.93766939    -0.00800
C3538       C  0.23237533  0.37272988  0.91659241     0.04100
C3539       C  0.28703383  0.32005001  0.92937151     0.38800
C3540       C  0.19019016  0.38248480  0.94112505     0.38800
C3541       C  0.22374322  0.39251006  0.89656037     0.37200
C3542       C  0.24910062  0.30599067  0.96902257     0.37200
N3543       N  0.21600150  0.40770514  0.88037334    -0.37600
N3544       N  0.25289913  0.28714639  0.98254444    -0.37600
N3545       N  0.17070571  0.39526362  0.94396225    -0.37100
N3546       N  0.30640667  0.30674069  0.92873835    -0.37100
C3547       C  0.31355605  0.41514453  0.84881828    -0.03700
C3548       C  0.30883307  0.42379861  0.82203124    -0.00900
C3549       C  0.32681333  0.44174518  0.80944614     0.04100
C3550       C  0.34359210  0.45919423  0.82504146    -0.03700
C3551       C  0.34686809  0.45184700  0.85276762    -0.00800
C3552       C  0.33422281  0.42851910  0.86337773     0.04100
C3553       C  0.28504372  0.41560586  0.80715871     0.38800
C3554       C  0.36579237  0.46613420  0.87016264     0.38800
C3555       C  0.34526790  0.41676554  0.88789692     0.37200
C3556       C  0.33310380  0.43525095  0.78194672     0.37200
N3557       N  0.35573322  0.40796637  0.90695825    -0.37600
N3558       N  0.33822210  0.42869267  0.76025329    -0.37600
N3559       N  0.38085046  0.47730411  0.88418888    -0.37100
N3560       N  0.26575697  0.41050174  0.79493094    -0.37100
C3561       C  0.28643437  0.41313514  0.90725535    -0.03700
C3562       C  0.29787365  0.40861915  0.93314110    -0.00900
C3563       C  0.29574759  0.42883713  0.95305900     0.04100
C3564       C  0.28049907  0.45268310  0.94788322    -0.03700
C3565       C  0.27218918  0.45862331  0.92136167    -0.00800
C3566       C  0.27469368  0.43876850  0.90113161     0.04100
C3567       C  0.31304138  0.38386206  0.93916798     0.38800
C3568       C  0.26458111  0.48611582  0.91385836     0.38800
C3569       C  0.26427520  0.44472115  0.87437211     0.37200
C3570       C  0.31022693  0.42563888  0.97844382     0.37200
N3571       N  0.25568170  0.44989983  0.85322991    -0.37600
N3572       N  0.32216122  0.42333343  0.99848520    -0.37600
N3573       N  0.25998437  0.50788521  0.90607776    -0.37100
N3574       N  0.32593769  0.36474164  0.94440236    -0.37100
C3575       C  0.32873131  0.49743382  0.32390928    -0.03700
C3576       C  0.35621274  0.50176147  0.32005338    -0.00900
C3577       C  0.36823659  0.49384025  0.29575365     0.04100
C3578       C  0.35249972  0.48355945  0.27396009    -0.03700
C3579       C  0.32478225  0.47881404  0.27842233    -0.00800
C3580       C  0.31301760  0.48664853  0.30280877     0.04100
C3581       C  0.37225971  0.51461966  0.34090312     0.38800
C3582       C  0.30806596  0.46410305  0.25951927     0.38800
C3583       C  0.28412838  0.48475817  0.30594134     0.37200
C3584       C  0.39727140  0.49376400  0.29465813     0.37200
N3585       N  0.26097184  0.48414749  0.30789037    -0.37600
N3586       N  0.42052307  0.49358581  0.29513654    -0.37600
N3587       N  0.29371287  0.45137016  0.24613405    -0.37100
N3588       N  0.38572519  0.52510017  0.35693001    -0.37100
C3589       C  0.46648001  0.42235572  0.17387191    -0.03700
C3590       C  0.46583076  0.39532864  0.16420299    -0.00900
C3591       C  0.48105478  0.37467892  0.17725537     0.04100
C3592       C  0.49740035  0.38108230  0.19983962    -0.03700
C3593       C  0.50174187  0.40869472  0.20629470    -0.00800
C3594       C  0.48763988  0.42931426  0.19228725     0.04100
C3595       C  0.44998709  0.38897175  0.14035111     0.38800
C3596       C  0.51800555  0.41638245  0.22956758     0.38800
C3597       C  0.49603969  0.45710181  0.19724940     0.37200
C3598       C  0.47971071  0.34706135  0.16714968     0.37200
N3599       N  0.50385576  0.47886404  0.20146162    -0.37600
N3600       N  0.47848000  0.32549050  0.15782501    -0.37600
N3601       N  0.53001031  0.42353796  0.24833870    -0.37100
N3602       N  0.43750578  0.38384236  0.12121917    -0.37100
C3603       C  0.43075643  0.52151541  0.20117270    -0.03700
C3604       C  0.44346760  0.51523859  0.22637539    -0.00900
C3605       C  0.46171512  0.53342815  0.23934660     0.04100
C3606       C  0.47486013  0.55417202  0.22494882    -0.03700
C3607       C  0.46674092  0.55688299  0.19747338    -0.00800
C3608       C  0.44440207  0.54174016  0.18608528     0.04100
C3609       C  0.44132362  0.48801100  0.23736001     0.38800
C3610       C  0.48208520  0.57462698  0.18053800     0.38800
C3611       C  0.43743554  0.54523829  0.15800596     0.37200
C3612       C  0.46682197  0.52964865  0.26767929     0.37200
N3613       N  0.43220145  0.54790237  0.13542678    -0.37600
N3614       N  0.47017441  0.52492509  0.29023928    -0.37600
N3615       N  0.49459293  0.58859201  0.16696031    -0.37100
N3616       N  0.43991038  0.46604573  0.24560602    -0.37100
C3617       C  0.24359946  0.31539880  0.15932955    -0.03700
C3618       C  0.25820000  0.29070938  0.16383386    -0.00900
C3619       C  0.24500441  0.26717866  0.17317719     0.04100
C3620       C  0.21753976  0.26841608  0.17990487    -0.03700
C3621       C  0.20359324  0.29359658  0.17753270    -0.00800
C3622       C  0.21617367  0.31655499  0.16636232     0.04100
C3623       C  0.28624148  0.28847359  0.15663302     0.38800
C3624       C  0.17634455  0.29613344  0.18724910     0.38800
C3625       C  0.20078540  0.34152349  0.16239614     0.37200
C3626       C  0.25915380  0.24112920  0.17372536     0.37200
N3627       N  0.18817167  0.36133434  0.15961655    -0.37600
N3628       N  0.27033789  0.22029362  0.17377569    -0.37600
N3629       N  0.15478270  0.29862819  0.19541045    -0.37100
N3630       N  0.30847428  0.28562590  0.15052979    -0.37100
C3631       C  0.28770600  0.34650346  0.18746957    -0.03700
C3632       C  0.31393595  0.33541433  0.18883088    -0.00900
C3633       C  0.32135476  0.31735990  0.20975488     0.04100
C3634       C  0.30376356  0.31277191  0.23153996    -0.03700
C3635       C  0.27854747  0.32653875  0.23153566    -0.00800
C3636       C  0.27064895  0.34326332  0.20967836     0.04100
C3637       C  0.33284945  0.34041148  0.16753999     0.38800
C3638       C  0.25976734  0.32228042  0.25312483     0.38800
C3639       C  0.24483098  0.35727067  0.21035300     0.37200
C3640       C  0.34651239  0.30232919  0.20721254     0.37200
N3641       N  0.22432915  0.36856592  0.21190057    -0.37600
N3642       N  0.36632161  0.29021642  0.20395723    -0.37600
N3643       N  0.24473671  0.31889654  0.27027767    -0.37100
N3644       N  0.34869388  0.34364832  0.15112624    -0.37100
C3645       C  0.34726830  0.44022528  0.16474690    -0.03700
C3646       C  0.34923706  0.42302807  0.14158144    -0.00900
C3647       C  0.32877240  0.40325258  0.13464753     0.04100
C3648       C  0.30589768  0.39886699  0.15110004    -0.03700
C3649       C  0.30323527  0.41734668  0.17288338    -0.00800
C3650       C  0.32154732  0.43937693  0.17707851     0.04100
C3651       C  0.37070373  0.42761943  0.12289693     0.38800
C3652       C  0.28056965  0.41534161  0.19052329     0.38800
C3653       C  0.31077417  0.46387529  0.18920131     0.37200
C3654       C  0.33179364  0.38707256  0.11052923     0.37200
N3655       N  0.30112283  0.48353351  0.19780517    -0.37600
N3656       N  0.33472088  0.37419807  0.09128293    -0.37600
N3657       N  0.26275159  0.41486054  0.20514713    -0.37100
N3658       N  0.38750121  0.43148474  0.10758196    -0.37100
C3659       C  0.22908149  0.34028603  0.10321777    -0.03700
C3660       C  0.22847367  0.31227796  0.09571036    -0.00900
C3661       C  0.20678169  0.30142361  0.08037022     0.04100
C3662       C  0.19075615  0.31827845  0.06340439    -0.03700
C3663       C  0.19045735  0.34637444  0.07071609    -0.00800
C3664       C  0.20789986  0.35672660  0.09164529     0.04100
C3665       C  0.25139340  0.29444709  0.10000371     0.38800
C3666       C  0.17063674  0.36441817  0.05820457     0.38800
C3667       C  0.20165572  0.38333172  0.10250142     0.37200
C3668       C  0.19629515  0.27554983  0.08897594     0.37200
N3669       N  0.19458087  0.40423735  0.11076075    -0.37600
N3670       N  0.18774165  0.25506218  0.09628574    -0.37600
N3671       N  0.15466677  0.37876955  0.04837193    -0.37100
N3672       N  0.26946853  0.27940066  0.10135760    -0.37100
C3673       C  0.25745262  0.43275642  0.05901958    -0.03700
C3674       C  0.26621178  0.40625650  0.05263253    -0.00900
C3675       C  0.26971801  0.38695005  0.07325289     0.04100
C3676       C  0.26466160  0.39454172  0.10012278    -0.03700
C3677       C  0.25355344  0.42052731  0.10583161    -0.00800
C3678       C  0.24802292  0.43865814  0.08476169     0.04100
C3679       C  0.26795194  0.39790314  0.02481392     0.38800
C3680       C  0.24481166  0.42772987  0.13259980     0.38800
C3681       C  0.22908781  0.46108076  0.08844708     0.37200
C3682       C  0.27822668  0.35936829  0.06671612     0.37200
N3683       N  0.21301602  0.47810358  0.09117702    -0.37600
N3684       N  0.28488757  0.33737166  0.06131279    -0.37600
N3685       N  0.23664288  0.43413474  0.15332013    -0.37100
N3686       N  0.26822709  0.39042234  0.00277353    -0.37100
C3687       C  0.23385872  0.67798988  0.16273843    -0.03700
C3688       C  0.25456018  0.69726693  0.15998894    -0.00900
C3689       C  0.24968703  0.72488717  0.16588833     0.04100
C3690       C  0.22470645  0.73320428  0.17637542    -0.03700
C3691       C  0.20469438  0.71368425  0.18095623    -0.00800
C3692       C  0.20870242  0.68645408  0.17270716     0.04100
C3693       C  0.27996442  0.68945279  0.14813039     0.38800
C3694       C  0.18018998  0.72141011  0.19452412     0.38800
C3695       C  0.18665333  0.66751816  0.17375036     0.37200
C3696       C  0.27054927  0.74474753  0.16118917     0.37200
N3697       N  0.16860012  0.65286759  0.17430109    -0.37600
N3698       N  0.28717840  0.76047133  0.15719735    -0.37600
N3699       N  0.16096552  0.72721110  0.20612815    -0.37100
N3700       N  0.29999866  0.68441871  0.13758254    -0.37100
C3701       C  0.28974469  0.65910797  0.24328250    -0.03700
C3702       C  0.30712327  0.65539636  0.22126639    -0.00900
C3703       C  0.29740812  0.64472577  0.19680209     0.04100
C3704       C  0.26982588  0.63916719  0.19359676    -0.03700
C3705       C  0.25282064  0.64104560  0.21605136    -0.00800
C3706       C  0.26268888  0.65109658  0.24078169     0.04100
C3707       C  0.33474335  0.66429705  0.22292770     0.38800
C3708       C  0.22568665  0.63058287  0.21428374     0.38800
C3709       C  0.24514522  0.65255036  0.26374987     0.37200
C3710       C  0.31602656  0.63992903  0.17512402     0.37200
N3711       N  0.23112060  0.65364912  0.28205403    -0.37600
N3712       N  0.33153982  0.63624720  0.15837384    -0.37600
N3713       N  0.20435942  0.62140622  0.21329853    -0.37100
N3714       N  0.35672761  0.67162051  0.22382708    -0.37100
C3715       C  0.20620303  0.64702106  0.11611427    -0.03700
C3716       C  0.18315057  0.63067391  0.11170521    -0.00900
C3717       C  0.16431222  0.63786777  0.09145609     0.04100
C3718       C  0.16705502  0.66251961  0.07776726    -0.03700
C3719       C  0.18729956  0.68070731  0.08515187    -0.00800
C3720       C  0.20813294  0.67223163  0.10245186     0.04100
C3721       C  0.17899749  0.60623108  0.12733069     0.38800
C3722       C  0.18711278  0.70771542  0.07345410     0.38800
C3723       C  0.23299530  0.68717918  0.10124492     0.37200
C3724       C  0.14245911  0.61992713  0.08415807     0.37200
N3725       N  0.25218106  0.69972089  0.09775315    -0.37600
N3726       N  0.12498613  0.60562107  0.07825119    -0.37600
N3727       N  0.18600269  0.72934089  0.06431837    -0.37100
N3728       N  0.17529609  0.58670656  0.13966596    -0.37100
C3729       C  0.32647445  0.55156791  0.15475043    -0.03700
C3730       C  0.31126176  0.55647822  0.17786194    -0.00900
C3731       C  0.28909775  0.57462000  0.17677843     0.04100
C3732       C  0.28387468  0.59010324  0.15323442    -0.03700
C3733       C  0.30094603  0.58670034  0.13088721    -0.00800
C3734       C  0.32111235  0.56636704  0.13121157     0.04100
C3735       C  0.31889336  0.54324336  0.20289885     0.38800
C3736       C  0.29924940  0.60538464  0.10836120     0.38800
C3737       C  0.33666378  0.56066916  0.10746219     0.37200
C3738       C  0.27138456  0.57606390  0.19955676     0.37200
N3739       N  0.34891276  0.55589595  0.08842285    -0.37600
N3740       N  0.25755560  0.57609455  0.21802603    -0.37600
N3741       N  0.29837548  0.62060252  0.09063492    -0.37100
N3742       N  0.32509222  0.53313848  0.22308888    -0.37100
C3743       C  0.23722341  0.58984405  0.10982602    -0.03700
C3744       C  0.23415130  0.59511308  0.08188156    -0.00900
C3745       C  0.23133047  0.57316068  0.06381566     0.04100
C3746       C  0.23855990  0.54662502  0.07223001    -0.03700
C3747       C  0.24338924  0.54165738  0.09970107    -0.00800
C3748       C  0.23805521  0.56236022  0.11831044     0.04100
C3749       C  0.23693025  0.62202929  0.07053790     0.38800
C3750       C  0.25651388  0.51685581  0.10905625     0.38800
C3751       C  0.23205036  0.55501208  0.14570135     0.37200
C3752       C  0.22273346  0.57821994  0.03624216     0.37200
N3753       N  0.22616850  0.54876926  0.16719103    -0.37600
N3754       N  0.21516245  0.58251128  0.01454308    -0.37600
N3755       N  0.26791044  0.49783073  0.11727512    -0.37100
N3756       N  0.23961583  0.64261721  0.05966292    -0.37100
C3757       C  0.99972651  0.18153510  0.22016459    -0.03700
C3758       C  0.98636915  0.17021410  0.19759971    -0.00900
C3759       C  0.98658402  0.18330266  0.17207710     0.04100
C3760       C  0.99835112  0.20933140  0.16884010    -0.03700
C3761       C  0.01007936  0.22146760  0.19197317    -0.00800
C3762       C  0.01109037  0.20765152  0.21712465     0.04100
C3763       C  0.97002586  0.14631398  0.20097899     0.38800
C3764       C  0.01974331  0.24910490  0.19063400     0.38800
C3765       C  0.02322362  0.22123490  0.23994238     0.37200
C3766       C  0.97498926  0.16904493  0.14938956     0.37200
N3767       N  0.03307607  0.23371648  0.25708927    -0.37600
N3768       N  0.96571885  0.15605248  0.13225789    -0.37600
N3769       N  0.02694421  0.27143477  0.19092989    -0.37100
N3770       N  0.95579965  0.12794054  0.20272751    -0.37100
C3771       C  0.03471737  0.08448830  0.28768972    -0.03700
C3772       C  0.02726233  0.07211568  0.26240090    -0.00900
C3773       C  0.03688780  0.04554299  0.25388993     0.04100
C3774       C  0.05117597  0.02735293  0.27131794    -0.03700
C3775       C  0.05417967  0.03716682  0.29813173    -0.00800
C3776       C  0.04746109  0.06516400  0.30578630     0.04100
C3777       C  0.00615658  0.08431437  0.24614670     0.38800
C3778       C  0.06478660  0.01843728  0.31815754     0.38800
C3779       C  0.05345249  0.07359195  0.33304711     0.37200
C3780       C  0.03020487  0.03605883  0.22704909     0.37200
N3781       N  0.05866106  0.07999568  0.35488097    -0.37600
N3782       N  0.02441753  0.02879201  0.20562982    -0.37600
N3783       N  0.07289633  0.00364961  0.33453263    -0.37100
N3784       N  0.98858219  0.09265729  0.23298687    -0.37100
C3785       C  0.90094442  0.02186239  0.30224828    -0.03700
C3786       C  0.92910033  0.01686277  0.30396759    -0.00900
C3787       C  0.94519138  0.03415802  0.31945323     0.04100
C3788       C  0.93622287  0.06110535  0.32393820    -0.03700
C3789       C  0.90796563  0.06511712  0.32579675    -0.00800
C3790       C  0.89054243  0.04405199  0.31727684     0.04100
C3791       C  0.94319072  0.99782220  0.28690778     0.38800
C3792       C  0.89633464  0.08945972  0.33737556     0.38800
C3793       C  0.86244747  0.04495246  0.32462165     0.37200
C3794       C  0.97110820  0.02454458  0.32976675     0.37200
N3795       N  0.84026907  0.04580636  0.33132520    -0.37600
N3796       N  0.99174144  0.01680698  0.33798444    -0.37600
N3797       N  0.88617912  0.10849615  0.34673795    -0.37100
N3798       N  0.95632879  0.98378468  0.27365374    -0.37100
C3799       C  0.72982255  0.30478362  0.50135358    -0.03700
C3800       C  0.70689391  0.31889426  0.51181122    -0.00900
C3801       C  0.68179498  0.30574142  0.51505973     0.04100
C3802       C  0.67754022  0.27896910  0.50543754    -0.03700
C3803       C  0.69948798  0.26531955  0.49349542    -0.00800
C3804       C  0.72525434  0.27765455  0.49171889     0.04100
C3805       C  0.70780453  0.34772180  0.51819138     0.38800
C3806       C  0.69605183  0.23747162  0.48437865     0.38800
C3807       C  0.74636495  0.26148956  0.47961165     0.37200
C3808       C  0.66037790  0.32069853  0.52811128     0.37200
N3809       N  0.76192616  0.24752001  0.46911500    -0.37600
N3810       N  0.64433592  0.33417667  0.53850365    -0.37600
N3811       N  0.69407273  0.21501362  0.47756262    -0.37100
N3812       N  0.70732721  0.37060683  0.52388687    -0.37100
C3813       C  0.81091847  0.41701434  0.43641002    -0.03700
C3814       C  0.80779401  0.44517504  0.44248988    -0.00900
C3815       C  0.78875637  0.46143879  0.42821577     0.04100
C3816       C  0.77819733  0.45248468  0.40308796    -0.03700
C3817       C  0.78657003  0.42642978  0.39400687    -0.00800
C3818       C  0.79966278  0.40780284  0.41168032     0.04100
C3819       C  0.82415857  0.45776287  0.46337701     0.38800
C3820       C  0.78393040  0.41943679  0.36590408     0.38800
C3821       C  0.79929296  0.37918310  0.40478238     0.37200
C3822       C  0.77826561  0.48544329  0.44160739     0.37200
N3823       N  0.79834320  0.35621348  0.39957754    -0.37600
N3824       N  0.77017121  0.50375456  0.45388205    -0.37600
N3825       N  0.78355853  0.41415229  0.34328105    -0.37100
N3826       N  0.83720847  0.46798406  0.47992232    -0.37100
C3827       C  0.79974359  0.39284076  0.54026243    -0.03700
C3828       C  0.81517675  0.40669113  0.56056859    -0.00900
C3829       C  0.80590860  0.43168380  0.57271077     0.04100
C3830       C  0.78303718  0.44630634  0.56271350    -0.03700
C3831       C  0.76959411  0.43457456  0.54040519    -0.00800
C3832       C  0.77653362  0.40794152  0.53047841     0.04100
C3833       C  0.84211244  0.39734093  0.56757375     0.38800
C3834       C  0.74930184  0.45054952  0.52620406     0.38800
C3835       C  0.76139066  0.39818353  0.50729978     0.37200
C3836       C  0.82113175  0.44317212  0.59493828     0.37200
N3837       N  0.74969395  0.39121383  0.48826144    -0.37600
N3838       N  0.83370949  0.45207272  0.61255538    -0.37600
N3839       N  0.73306563  0.46241651  0.51393968    -0.37100
N3840       N  0.86391461  0.39076438  0.57330078    -0.37100
C3841       C  0.03467504  0.18142676  0.81382712    -0.03700
C3842       C  0.04150724  0.20919747  0.81308154    -0.00900
C3843       C  0.04405962  0.22443360  0.83712867     0.04100
C3844       C  0.03774474  0.21267978  0.86219660    -0.03700
C3845       C  0.02898091  0.18534332  0.86257738    -0.00800
C3846       C  0.02816770  0.16967273  0.83865977     0.04100
C3847       C  0.04400199  0.22260190  0.78737025     0.38800
C3848       C  0.01952956  0.17349779  0.88720155     0.38800
C3849       C  0.01877025  0.14188061  0.83928627     0.37200
C3850       C  0.05061498  0.25303466  0.83551178     0.37200
N3851       N  0.01100467  0.11977480  0.84015914    -0.37600
N3852       N  0.05494640  0.27601370  0.83311155    -0.37600
N3853       N  0.01156793  0.16347116  0.90648015    -0.37100
N3854       N  0.04511275  0.23365910  0.76692682    -0.37100
C3855       C  0.07245253  0.09564646  0.74492025    -0.03700
C3856       C  0.06700433  0.07496416  0.76413191    -0.00900
C3857       C  0.08451029  0.05216215  0.76810339     0.04100
C3858       C  0.10987701  0.05089115  0.75578014    -0.03700
C3859       C  0.11653476  0.07264517  0.73862739    -0.00800
C3860       C  0.09935599  0.09586786  0.73567109     0.04100
C3861       C  0.04459683  0.07808786  0.78212637     0.38800
C3862       C  0.14181454  0.07217298  0.72453711     0.38800
C3863       C  0.11346369  0.12129098  0.73429993     0.37200
C3864       C  0.07663778  0.03088115  0.78642271     0.37200
N3865       N  0.12687799  0.14043001  0.73463083    -0.37600
N3866       N  0.06961483  0.01470384  0.80155237    -0.37600
N3867       N  0.16152510  0.07240387  0.71249657    -0.37100
N3868       N  0.02734629  0.08000088  0.79730464    -0.37100
C3869       C  0.94128868  0.01088008  0.76398031    -0.03700
C3870       C  0.95375349  0.03204794  0.77882475    -0.00900
C3871       C  0.96520874  0.05396107  0.76543704     0.04100
C3872       C  0.97115821  0.05161823  0.73813122    -0.03700
C3873       C  0.96134760  0.02955838  0.72324863    -0.00800
C3874       C  0.94440641  0.01055369  0.73559694     0.04100
C3875       C  0.95816193  0.03051737  0.80751030     0.38800
C3876       C  0.96756393  0.02749986  0.69499817     0.38800
C3877       C  0.92849521  0.99305009  0.71839836     0.37200
C3878       C  0.96929593  0.07961121  0.77935448     0.37200
N3879       N  0.91580747  0.98033567  0.70340186    -0.37600
N3880       N  0.97157152  0.10042232  0.79009792    -0.37600
N3881       N  0.97274461  0.02581153  0.67248226    -0.37100
N3882       N  0.96394419  0.03039228  0.83010234    -0.37100
C3883       C  0.89046230  0.22413612  0.71713684    -0.03700
C3884       C  0.88568332  0.19787597  0.72774357    -0.00900
C3885       C  0.87805541  0.19488744  0.75480850     0.04100
C3886       C  0.87310457  0.21801577  0.77097178    -0.03700
C3887       C  0.87764230  0.24415633  0.76037794    -0.00800
C3888       C  0.88762857  0.24704665  0.73425787     0.04100
C3889       C  0.88861761  0.17378421  0.71113852     0.38800
C3890       C  0.87236072  0.26825786  0.77654837     0.38800
C3891       C  0.89797401  0.27323794  0.72638918     0.37200
C3892       C  0.87776923  0.16804203  0.76675472     0.37200
N3893       N  0.90721665  0.29414760  0.72152375    -0.37600
N3894       N  0.87850020  0.14674654  0.77663427    -0.37600
N3895       N  0.86803858  0.28743539  0.78942590    -0.37100
N3896       N  0.89065432  0.15418520  0.69832034    -0.37100
C3897       C  0.85707673  0.25767347  0.67841028    -0.03700
C3898       C  0.85473101  0.28639698  0.67743185    -0.00900
C3899       C  0.83030740  0.29918147  0.68384819     0.04100
C3900       C  0.80808846  0.28334009  0.69097458    -0.03700
C3901       C  0.81086134  0.25480906  0.69370236    -0.00800
C3902       C  0.83510327  0.24194931  0.68679141     0.04100
C3903       C  0.87734290  0.30324393  0.67053891     0.38800
C3904       C  0.78837762  0.23831169  0.70208840     0.38800
C3905       C  0.83621829  0.21238079  0.68604882     0.37200
C3906       C  0.82820231  0.32876672  0.68347461     0.37200
N3907       N  0.83587948  0.18881835  0.68510093    -0.37600
N3908       N  0.82671341  0.35232911  0.68315898    -0.37600
N3909       N  0.77057229  0.22514646  0.70890387    -0.37100
N3910       N  0.89485603  0.31768070  0.66576536    -0.37100
C3911       C  0.93955525  0.19828507  0.68713446    -0.03700
C3912       C  0.94708525  0.17404029  0.67338132    -0.00900
C3913       C  0.96772614  0.15683973  0.68403462     0.04100
C3914       C  0.97702109  0.16026888  0.71100104    -0.03700
C3915       C  0.96353435  0.17975707  0.72645193    -0.00800
C3916       C  0.94996298  0.20148923  0.71364455     0.04100
C3917       C  0.93216554  0.16462599  0.65007328     0.38800
C3918       C  0.95406647  0.17147512  0.75239222     0.38800
C3919       C  0.95027399  0.22749597  0.72719483     0.37200
C3920       C  0.97846727  0.13511029  0.66737295     0.37200
N3921       N  0.95215769  0.24808555  0.73839440    -0.37600
N3922       N  0.98690991  0.11781402  0.65396933    -0.37600
N3923       N  0.94599309  0.16378411  0.77263944    -0.37100
N3924       N  0.92050033  0.15511550  0.63216848    -0.37100
C3925       C  0.86391536  0.29492626  0.57850497    -0.03700
C3926       C  0.84876818  0.27314847  0.58834116    -0.00900
C3927       C  0.85872714  0.25671536  0.60996016     0.04100
C3928       C  0.88453985  0.26135010  0.62186765    -0.03700
C3929       C  0.89996568  0.28293987  0.61116857    -0.00800
C3930       C  0.88951319  0.29965711  0.59001033     0.04100
C3931       C  0.82276558  0.26774819  0.57602341     0.38800
C3932       C  0.92584377  0.28970987  0.62296678     0.38800
C3933       C  0.90477139  0.32249984  0.58031439     0.37200
C3934       C  0.84229686  0.23460338  0.61923474     0.37200
N3935       N  0.91675271  0.34090070  0.57259921    -0.37600
N3936       N  0.82863723  0.21699051  0.62582893    -0.37600
N3937       N  0.94626841  0.29636102  0.63216161    -0.37100
N3938       N  0.80203096  0.26338824  0.56611593    -0.37100
C3939       C  0.93721309  0.22392625  0.62748810    -0.03700
C3940       C  0.92933548  0.21180945  0.60279280    -0.00900
C3941       C  0.94733256  0.21121541  0.58136082     0.04100
C3942       C  0.96971568  0.22827968  0.58229459    -0.03700
C3943       C  0.97749635  0.24055993  0.60670205    -0.00800
C3944       C  0.96293986  0.23555422  0.63003266     0.04100
C3945       C  0.90273149  0.20057176  0.59895578     0.38800
C3946       C  0.99870075  0.26043492  0.60708049     0.38800
C3947       C  0.97355046  0.24438872  0.65587103     0.37200
C3948       C  0.94309581  0.19301875  0.55881172     0.37200
N3949       N  0.98266932  0.25111932  0.67632145    -0.37600
N3950       N  0.94025534  0.17772847  0.54129900    -0.37600
N3951       N  0.01466839  0.27729145  0.60634650    -0.37100
N3952       N  0.88160886  0.19142118  0.59550914    -0.37100
C3953       C  0.87351373  0.23498178  0.33083948    -0.03700
C3954       C  0.86498281  0.20843966  0.32389006    -0.00900
C3955       C  0.84900959  0.20416748  0.30060070     0.04100
C3956       C  0.84283482  0.22600489  0.28311894    -0.03700
C3957       C  0.85336791  0.25200719  0.28863660    -0.00800
C3958       C  0.86860155  0.25652278  0.31236899     0.04100
C3959       C  0.87080007  0.18566392  0.34156952     0.38800
C3960       C  0.84729226  0.27454315  0.27058189     0.38800
C3961       C  0.87942503  0.28339991  0.31726825     0.37200
C3962       C  0.83816562  0.17737045  0.29508408     0.37200
N3963       N  0.88824608  0.30496585  0.32006513    -0.37600
N3964       N  0.82934956  0.15602723  0.29090269    -0.37600
N3965       N  0.84242520  0.29257082  0.25628058    -0.37100
N3966       N  0.87486926  0.16729027  0.35562920    -0.37100
C3967       C  0.84199394  0.26808263  0.36980672    -0.03700
C3968       C  0.83942030  0.29643067  0.36545541    -0.00900
C3969       C  0.81642318  0.30694900  0.35208907     0.04100
C3970       C  0.79582250  0.28919767  0.34409096    -0.03700
C3971       C  0.79774972  0.26110061  0.34981618    -0.00800
C3972       C  0.82060242  0.25069360  0.36305818     0.04100
C3973       C  0.86109962  0.31453418  0.37283615     0.38800
C3974       C  0.77642088  0.24265201  0.34163668     0.38800
C3975       C  0.82218192  0.22188937  0.36935250     0.37200
C3976       C  0.81491171  0.33546063  0.34456474     0.37200
N3977       N  0.82252553  0.19887874  0.37445715    -0.37600
N3978       N  0.81390402  0.35817056  0.33835047    -0.37600
N3979       N  0.75967458  0.22780789  0.33492512    -0.37100
N3980       N  0.87815312  0.32959186  0.37803824    -0.37100
C3981       C  0.96620633  0.17421530  0.33468703    -0.03700
C3982       C  0.95437223  0.16792322  0.35990022    -0.00900
C3983       C  0.93461169  0.18542552  0.37184386     0.04100
C3984       C  0.92698342  0.21078727  0.36000052    -0.03700
C3985       C  0.94161928  0.21863688  0.33704143    -0.00800
C3986       C  0.96236946  0.20162248  0.32629834     0.04100
C3987       C  0.96400295  0.14446023  0.37513252     0.38800
C3988       C  0.93796383  0.24567052  0.32586731     0.38800
C3989       C  0.98381579  0.21489080  0.31242603     0.37200
C3990       C  0.92169289  0.17631517  0.39602142     0.37200
N3991       N  0.00111788  0.22643735  0.30244924    -0.37600
N3992       N  0.91181853  0.16796551  0.41515150    -0.37600
N3993       N  0.93666464  0.26721375  0.31651527    -0.37100
N3994       N  0.97149641  0.12577701  0.38743723    -0.37100
C3995       C  0.86911791  0.27281921  0.42541121    -0.03700
C3996       C  0.84515001  0.26613904  0.43920141    -0.00900
C3997       C  0.83592049  0.28204650  0.46137550     0.04100
C3998       C  0.84580744  0.30850569  0.46652641    -0.03700
C3999       C  0.87123306  0.31404380  0.45470549    -0.00800
C4000       C  0.88288323  0.29618656  0.43501974     0.04100
C4001       C  0.83002778  0.24215655  0.43217063     0.38800
C4002       C  0.88658708  0.33726983  0.46391131     0.38800
C4003       C  0.90906568  0.30231485  0.42435468     0.37200
C4004       C  0.82137213  0.26850720  0.48234745     0.37200
N4005       N  0.92997538  0.30743673  0.41595791    -0.37600
N4006       N  0.81089905  0.25745947  0.49975229    -0.37600
N4007       N  0.89895334  0.35575371  0.47127479    -0.37100
N4008       N  0.81698145  0.22314970  0.42825979    -0.37100
C4009       C  0.92301386  0.23513366  0.42065143    -0.03700
C4010       C  0.95062624  0.23998580  0.41656711    -0.00900
C4011       C  0.96909256  0.23488285  0.43740366     0.04100
C4012       C  0.95961604  0.23137935  0.46350552    -0.03700
C4013       C  0.93217750  0.22728326  0.46799999    -0.00800
C4014       C  0.91442452  0.22618212  0.44600862     0.04100
C4015       C  0.96019370  0.25308409  0.39257127     0.38800
C4016       C  0.92176224  0.22549478  0.49492350     0.38800
C4017       C  0.88852316  0.21357803  0.44938184     0.37200
C4018       C  0.99775343  0.23410027  0.43217045     0.37200
N4019       N  0.86882471  0.20187390  0.45283940    -0.37600
N4020       N  0.02050261  0.23253403  0.42772997    -0.37600
N4021       N  0.91233279  0.22482368  0.51598430    -0.37100
N4022       N  0.96887546  0.26430301  0.37429904    -0.37100
C4023       C  0.29945064  0.32366389  0.49355124    -0.03700
C4024       C  0.31253119  0.31927924  0.46883438    -0.00900
C4025       C  0.32804622  0.29538578  0.46463926     0.04100
C4026       C  0.33604278  0.27910687  0.48682784    -0.03700
C4027       C  0.31821145  0.27975591  0.50875005    -0.00800
C4028       C  0.30150380  0.30290790  0.51311071     0.04100
C4029       C  0.30794799  0.33761460  0.44638831     0.38800
C4030       C  0.31380945  0.25511846  0.52390107     0.38800
C4031       C  0.28590181  0.30502673  0.53733187     0.37200
C4032       C  0.32282798  0.28203020  0.43921471     0.37200
N4033       N  0.27368521  0.30697932  0.55683848    -0.37600
N4034       N  0.31663436  0.27196826  0.41903623    -0.37600
N4035       N  0.30945681  0.23534428  0.53560912    -0.37100
N4036       N  0.30478813  0.35150066  0.42780782    -0.37100
C4037       C  0.24071157  0.43986250  0.43553709    -0.03700
C4038       C  0.22930308  0.45780551  0.41668811    -0.00900
C4039       C  0.24598662  0.47156629  0.39880732     0.04100
C4040       C  0.27437697  0.46833681  0.40081064    -0.03700
C4041       C  0.28542376  0.44844621  0.41836248    -0.00800
C4042       C  0.26841685  0.43391005  0.43513423     0.04100
C4043       C  0.20039177  0.46191736  0.41592327     0.38800
C4044       C  0.31412664  0.44319630  0.42066767     0.38800
C4045       C  0.27955747  0.41250066  0.45184478     0.37200
C4046       C  0.23358849  0.48731033  0.37728637     0.37200
N4047       N  0.28956725  0.39533795  0.46440854    -0.37600
N4048       N  0.22286025  0.49884861  0.35985539    -0.37600
N4049       N  0.33662747  0.43776489  0.42420833    -0.37100
N4050       N  0.17726575  0.46499591  0.41535362    -0.37100
C4051       C  0.26375948  0.47194152  0.57657863    -0.03700
C4052       C  0.23600521  0.46575534  0.57350599    -0.00900
C4053       C  0.22657965  0.44367947  0.55641469     0.04100
C4054       C  0.24444684  0.42509823  0.54263442    -0.03700
C4055       C  0.27213997  0.43336044  0.54403964    -0.00800
C4056       C  0.28120600  0.45613689  0.56020494     0.04100
C4057       C  0.21677752  0.48281367  0.58745459     0.38800
C4058       C  0.29204353  0.42121385  0.52683268     0.38800
C4059       C  0.30804378  0.46646976  0.55616260     0.37200
C4060       C  0.19789483  0.44174719  0.55138034     0.37200
N4061       N  0.32894414  0.47513224  0.55128981    -0.37600
N4062       N  0.17502093  0.44056955  0.54685176    -0.37600
N4063       N  0.30979980  0.41333395  0.51410033    -0.37100
N4064       N  0.20141696  0.49646523  0.59860881    -0.37100
C4065       C  0.15744407  0.24295482  0.34343084    -0.03700
C4066       C  0.16097068  0.25795468  0.31935603    -0.00900
C4067       C  0.16381209  0.24451438  0.29407500     0.04100
C4068       C  0.16204729  0.21574521  0.29189652    -0.03700
C4069       C  0.15950081  0.20075595  0.31620900    -0.00800
C4070       C  0.15788552  0.21409402  0.34146911     0.04100
C4071       C  0.15880704  0.28741026  0.31970362     0.38800
C4072       C  0.15845658  0.17117689  0.31576691     0.38800
C4073       C  0.15644873  0.19752197  0.36549621     0.37200
C4074       C  0.16706050  0.26073158  0.27009339     0.37200
N4075       N  0.15554713  0.18366865  0.38424184    -0.37600
N4076       N  0.16975627  0.27384536  0.25106858    -0.37600
N4077       N  0.15737548  0.14761827  0.31580759    -0.37100
N4078       N  0.15646768  0.31088659  0.31882614    -0.37100
C4079       C  0.19260609  0.28247476  0.37589781    -0.03700
C4080       C  0.21199693  0.26152180  0.37281092    -0.00900
C4081       C  0.23626319  0.26685487  0.36025421     0.04100
C4082       C  0.24246596  0.29367765  0.35323231    -0.03700
C4083       C  0.22396236  0.31512716  0.35764673    -0.00800
C4084       C  0.19878152  0.30949010  0.36862379     0.04100
C4085       C  0.20797892  0.23477636  0.38415321     0.38800
C4086       C  0.23060023  0.34280185  0.35004585     0.38800
C4087       C  0.17914483  0.33135484  0.37110158     0.37200
C4088       C  0.25494285  0.24465748  0.35494402     0.37200
N4089       N  0.16407151  0.34947721  0.37220423    -0.37600
N4090       N  0.26930039  0.22656550  0.35047572    -0.37600
N4091       N  0.23595949  0.36480420  0.34392529    -0.37100
N4092       N  0.20630802  0.21349853  0.39391289    -0.37100
C4093       C  0.19039069  0.34322953  0.46713295    -0.03700
C4094       C  0.16643137  0.34980660  0.45182721    -0.00900
C4095       C  0.15385662  0.33051949  0.43347482     0.04100
C4096       C  0.16536816  0.30426739  0.42808886    -0.03700
C4097       C  0.18823909  0.29740325  0.44440724    -0.00800
C4098       C  0.19812419  0.31511655  0.46530424     0.04100
C4099       C  0.15304025  0.37574025  0.45636896     0.38800
C4100       C  0.20144480  0.27118820  0.44135278     0.38800
C4101       C  0.21435780  0.30277631  0.48647255     0.37200
C4102       C  0.12896777  0.33812785  0.41978305     0.37200
N4103       N  0.22786511  0.29220187  0.50255506    -0.37600
N4104       N  0.10915120  0.34449473  0.40884813    -0.37600
N4105       N  0.21281908  0.25048896  0.44081240    -0.37100
N4106       N  0.14203790  0.39632603  0.46000554    -0.37100
C4107       C  0.07418803  0.18516651  0.35480974    -0.03700
C4108       C  0.08195804  0.18684293  0.38219669    -0.00900
C4109       C  0.09781354  0.20896663  0.39227938     0.04100
C4110       C  0.10496304  0.23120787  0.37546865    -0.03700
C4111       C  0.09490448  0.23024992  0.34845002    -0.00800
C4112       C  0.08130964  0.20691447  0.33808813     0.04100
C4113       C  0.07408280  0.16511824  0.39996785     0.38800
C4114       C  0.09719264  0.25380676  0.33124070     0.38800
C4115       C  0.07501423  0.20463565  0.30976867     0.37200
C4116       C  0.10787132  0.20728458  0.41961567     0.37200
N4117       N  0.07055607  0.20176102  0.28709763    -0.37600
N4118       N  0.11546303  0.20423583  0.44149235    -0.37600
N4119       N  0.09827033  0.27248281  0.31715940    -0.37100
N4120       N  0.06787546  0.14777589  0.41422909    -0.37100
C4121       C  0.10762670  0.27330052  0.42757010    -0.03700
C4122       C  0.11353116  0.26633337  0.45453449    -0.00900
C4123       C  0.09300614  0.26665013  0.47348036     0.04100
C4124       C  0.06641436  0.27352793  0.46562710    -0.03700
C4125       C  0.06101352  0.28365531  0.43966636    -0.00800
C4126       C  0.08147116  0.28284672  0.42035978     0.04100
C4127       C  0.13952013  0.25510216  0.46260361     0.38800
C4128       C  0.03437717  0.29406698  0.43266091     0.38800
C4129       C  0.07535299  0.29123049  0.39301246     0.37200
C4130       C  0.09921002  0.25872545  0.50104523     0.37200
N4131       N  0.07025492  0.29792826  0.37123380    -0.37600
N4132       N  0.10471652  0.25227280  0.52280348    -0.37600
N4133       N  0.01318160  0.30256767  0.42709747    -0.37100
N4134       N  0.15919085  0.24485610  0.47046402    -0.37100
C4135       C  0.14903134  0.26609504  0.70984691    -0.03700
C4136       C  0.15615089  0.28346554  0.73135051    -0.00900
C4137       C  0.17253367  0.27368117  0.75250307     0.04100
C4138       C  0.18074914  0.24616428  0.75257004    -0.03700
C4139       C  0.17245921  0.22834907  0.73205208    -0.00800
C4140       C  0.15609241  0.23808372  0.71106310     0.04100
C4141       C  0.14374947  0.31023531  0.73323409     0.38800
C4142       C  0.18150809  0.19995150  0.73209358     0.38800
C4143       C  0.14512003  0.21813812  0.69275882     0.37200
C4144       C  0.18046178  0.29163902  0.77435023     0.37200
N4145       N  0.13681706  0.19980909  0.68075211    -0.37600
N4146       N  0.18694415  0.30591607  0.79175253    -0.37600
N4147       N  0.18873445  0.17742556  0.73209620    -0.37100
N4148       N  0.13302821  0.33115135  0.73564394    -0.37100
C4149       C  0.18112070  0.29732347  0.67074965    -0.03700
C4150       C  0.19867189  0.27609191  0.66243976    -0.00900
C4151       C  0.22634926  0.28071058  0.66071578     0.04100
C4152       C  0.23658707  0.30641503  0.66735629    -0.03700
C4153       C  0.21945600  0.32743408  0.67626615    -0.00800
C4154       C  0.19171465  0.32297653  0.67789777     0.04100
C4155       C  0.18900039  0.24915359  0.65593909     0.38800
C4156       C  0.23070130  0.35322592  0.68509733     0.38800
C4157       C  0.17479929  0.34459594  0.68834038     0.37200
C4158       C  0.24461637  0.25840162  0.65398665     0.37200
N4159       N  0.16270829  0.36266486  0.69727059    -0.37600
N4160       N  0.25910559  0.24053343  0.64892268    -0.37600
N4161       N  0.23977013  0.37364427  0.69229537    -0.37100
N4162       N  0.18319804  0.22709454  0.65028650    -0.37100
C4163       C  0.07004284  0.20338035  0.68909161    -0.03700
C4164       C  0.08382200  0.21488412  0.71145571    -0.00900
C4165       C  0.09266634  0.24208190  0.71016190     0.04100
C4166       C  0.09067039  0.25608388  0.68549075    -0.03700
C4167       C  0.06927199  0.24848234  0.66878387    -0.00800
C4168       C  0.06136517  0.22115539  0.66821990     0.04100
C4169       C  0.08829398  0.19941183  0.73590626     0.38800
C4170       C  0.05035498  0.26971458  0.66113291     0.38800
C4171       C  0.04436142  0.21161717  0.64638670     0.37200
C4172       C  0.09774073  0.25685969  0.73486218     0.37200
N4173       N  0.03102824  0.20373314  0.62883361    -0.37600
N4174       N  0.10094326  0.26810520  0.75509434    -0.37600
N4175       N  0.03538952  0.28752473  0.65704117    -0.37100
N4176       N  0.09210691  0.18728789  0.75554253    -0.37100
C4177       C  0.17217239  0.34225147  0.57995237    -0.03700
C4178       C  0.15705497  0.35669810  0.59911780    -0.00900
C4179       C  0.14545974  0.34274397  0.62073850     0.04100
C4180       C  0.14734436  0.31397999  0.62234036    -0.03700
C4181       C  0.16177339  0.29962532  0.60248916    -0.00800
C4182       C  0.17550064  0.31389574  0.58260441     0.04100
C4183       C  0.15348858  0.38593903  0.59664632     0.38800
C4184       C  0.16271564  0.27019148  0.60151169     0.38800
C4185       C  0.19511615  0.29949153  0.56659708     0.37200
C4186       C  0.13165494  0.35821702  0.64124960     0.37200
N4187       N  0.21118278  0.28712597  0.55510456    -0.37600
N4188       N  0.12066739  0.37100512  0.65736240    -0.37600
N4189       N  0.16452661  0.24688241  0.59836132    -0.37100
N4190       N  0.15055998  0.40931141  0.59492263    -0.37100
C4191       C  0.09594295  0.28018042  0.62477870    -0.03700
C4192       C  0.09677966  0.25389690  0.61325736    -0.00900
C4193       C  0.08145349  0.24805405  0.59017950     0.04100
C4194       C  0.06767726  0.26936751  0.57629974    -0.03700
C4195       C  0.06997074  0.29644439  0.58602298    -0.00800
C4196       C  0.08181625  0.30125887  0.61132370     0.04100
C4197       C  0.11361496  0.23234863  0.62425457     0.38800
C4198       C  0.06050497  0.31960524  0.57022783     0.38800
C4199       C  0.07701106  0.32720424  0.62442185     0.37200
C4200       C  0.07996572  0.21975630  0.58144270     0.37200
N4201       N  0.07164562  0.34773548  0.63459901    -0.37600
N4202       N  0.07882798  0.19716486  0.57480050    -0.37600
N4203       N  0.05331921  0.33817561  0.55759379    -0.37100
N4204       N  0.12680822  0.21373091  0.63020280    -0.37100
C4205       C  0.13182761  0.98643246  0.22415315    -0.03700
C4206       C  0.15404467  0.99793967  0.23787778    -0.00900
C4207       C  0.17970963  0.99933387  0.22592381     0.04100
C4208       C  0.18384291  0.98952864  0.19935733    -0.03700
C4209       C  0.16083027  0.97995388  0.18495859    -0.00800
C4210       C  0.13571249  0.97673863  0.19775149     0.04100
C4211       C  0.15118478  0.00665877  0.26546777     0.38800
C4212       C  0.16194478  0.97608030  0.15613741     0.38800
C4213       C  0.11409855  0.96327393  0.18338890     0.37200
C4214       C  0.20119148  0.01157174  0.24156646     0.37200
N4215       N  0.09756250  0.95222140  0.17107201    -0.37600
N4216       N  0.21730355  0.02223889  0.25477376    -0.37600
N4217       N  0.16220030  0.97362434  0.13302547    -0.37100
N4218       N  0.15021092  0.01282759  0.28785726    -0.37100
C4219       C  0.28300718  0.04114886  0.08592694    -0.03700
C4220       C  0.26055507  0.03967769  0.06824724    -0.00900
C4221       C  0.26050250  0.05356207  0.04362389     0.04100
C4222       C  0.28062557  0.07257317  0.03812829    -0.03700
C4223       C  0.30299471  0.07462442  0.05588480    -0.00800
C4224       C  0.30449942  0.05842370  0.07940246     0.04100
C4225       C  0.23660938  0.02533229  0.07614901     0.38800
C4226       C  0.32509399  0.09217046  0.04901709     0.38800
C4227       C  0.32816735  0.05932086  0.09670248     0.37200
C4228       C  0.24026162  0.04729716  0.02343301     0.37200
N4229       N  0.34706743  0.06009461  0.11055839    -0.37600
N4230       N  0.22435977  0.04099900  0.00746771    -0.37600
N4231       N  0.34283820  0.10603121  0.04348509    -0.37100
N4232       N  0.21734116  0.01422137  0.08255306    -0.37100
C4233       C  0.26325671  0.93951156  0.12017444    -0.03700
C4234       C  0.23773200  0.93943978  0.10705302    -0.00900
C4235       C  0.23567370  0.93756358  0.07893169     0.04100
C4236       C  0.25689754  0.92620017  0.06416318    -0.03700
C4237       C  0.28247083  0.92448924  0.07658178    -0.00800
C4238       C  0.28587796  0.93167100  0.10406314     0.04100
C4239       C  0.21398389  0.93148455  0.12101967     0.38800
C4240       C  0.30540241  0.91509730  0.06137947     0.38800
C4241       C  0.31315822  0.93240751  0.11486585     0.37200
C4242       C  0.21059402  0.94508558  0.06541676     0.37200
N4243       N  0.33511919  0.93305592  0.12293939    -0.37600
N4244       N  0.19082968  0.95184432  0.05461932    -0.37600
N4245       N  0.32430837  0.90771198  0.05009514    -0.37100
N4246       N  0.19440165  0.92298789  0.12987754    -0.37100
C4247       C  0.51666207  0.68522813  0.31221088    -0.03700
C4248       C  0.52127733  0.65875257  0.32315218    -0.00900
C4249       C  0.51981346  0.63485441  0.30673765     0.04100
C4250       C  0.51107087  0.63613343  0.27955088    -0.03700
C4251       C  0.50536335  0.66240950  0.26893874    -0.00800
C4252       C  0.51010004  0.68642158  0.28439487     0.04100
C4253       C  0.52745023  0.65515405  0.35135509     0.38800
C4254       C  0.49643445  0.66570806  0.24137476     0.38800
C4255       C  0.51163030  0.71201882  0.27024390     0.37200
C4256       C  0.52772945  0.60881583  0.31816336     0.37200
N4257       N  0.51350037  0.73136022  0.25723241    -0.37600
N4258       N  0.53446013  0.58849237  0.32809341    -0.37600
N4259       N  0.49004085  0.67067682  0.21946923    -0.37100
N4260       N  0.53255799  0.65005611  0.37352489    -0.37100
C4261       C  0.47504214  0.77567086  0.44704348    -0.03700
C4262       C  0.47035300  0.74760511  0.44955908    -0.00900
C4263       C  0.46189233  0.73690434  0.47395323     0.04100
C4264       C  0.45172139  0.75440747  0.49398071    -0.03700
C4265       C  0.45597816  0.78286395  0.49138843    -0.00800
C4266       C  0.46862319  0.79321967  0.46830013     0.04100
C4267       C  0.47241411  0.72995210  0.42632670     0.38800
C4268       C  0.44707208  0.80195109  0.51155338     0.38800
C4269       C  0.47405246  0.82200472  0.46565259     0.37200
C4270       C  0.46510536  0.70792011  0.47856783     0.37200
N4271       N  0.47830251  0.84501757  0.46338223    -0.37600
N4272       N  0.46918037  0.68484826  0.48164252    -0.37600
N4273       N  0.44076765  0.81877913  0.52654640    -0.37100
N4274       N  0.47273563  0.71596470  0.40760797    -0.37100
C4275       C  0.56691208  0.75442092  0.40186149    -0.03700
C4276       C  0.58064575  0.77487597  0.41767135    -0.00900
C4277       C  0.59370876  0.76873825  0.44305312     0.04100
C4278       C  0.59549791  0.74179604  0.45296012    -0.03700
C4279       C  0.58061230  0.72194058  0.43867688    -0.00800
C4280       C  0.56531255  0.72851689  0.41496133     0.04100
C4281       C  0.57879964  0.80327885  0.40989581     0.38800
C4282       C  0.57814750  0.69507530  0.45051467     0.38800
C4283       C  0.54382961  0.71021050  0.40814224     0.37200
C4284       C  0.60504397  0.79038171  0.45936973     0.37200
N4285       N  0.52612092  0.69558131  0.40450760    -0.37600
N4286       N  0.61400882  0.80763963  0.47248198    -0.37600
N4287       N  0.57540614  0.67384265  0.46009147    -0.37100
N4288       N  0.57720660  0.82616770  0.40439384    -0.37100
C4289       C  0.79145754  0.99963293  0.18756127    -0.03700
C4290       C  0.81287961  0.01874327  0.18821769    -0.00900
C4291       C  0.83387770  0.01620804  0.20774941     0.04100
C4292       C  0.83130370  0.99829169  0.22984729    -0.03700
C4293       C  0.80942503  0.98027285  0.22940240    -0.00800
C4294       C  0.79307050  0.97803459  0.20635963     0.04100
C4295       C  0.81489447  0.04047364  0.16877683     0.38800
C4296       C  0.80170656  0.96558525  0.25313343     0.38800
C4297       C  0.78028698  0.95216953  0.20095174     0.37200
C4298       C  0.85874569  0.03053610  0.20345814     0.37200
N4299       N  0.77029265  0.93146406  0.19635094    -0.37600
N4300       N  0.87848307  0.04152790  0.19834306    -0.37600
N4301       N  0.79387290  0.95431697  0.27177409    -0.37100
N4302       N  0.81798038  0.05801319  0.15366150    -0.37100
C4303       C  0.74960171  0.09340211  0.06221166    -0.03700
C4304       C  0.72266275  0.08417552  0.05944969    -0.00900
C4305       C  0.71213936  0.06466329  0.07773251     0.04100
C4306       C  0.72674046  0.05684167  0.10149286    -0.03700
C4307       C  0.75097353  0.07082304  0.10645236    -0.00800
C4308       C  0.76408683  0.08447348  0.08547210     0.04100
C4309       C  0.70490832  0.09582153  0.03907644     0.38800
C4310       C  0.75873382  0.07747630  0.13373991     0.38800
C4311       C  0.79296067  0.08744366  0.08762403     0.37200
C4312       C  0.68562194  0.05365899  0.07250873     0.37200
N4313       N  0.81614262  0.08891850  0.08937239    -0.37600
N4314       N  0.66445371  0.04488442  0.06830210    -0.37600
N4315       N  0.76420580  0.08327193  0.15568030    -0.37100
N4316       N  0.69000023  0.10516275  0.02344133    -0.37100
C4317       C  0.73596454  0.95366394  0.06398710    -0.03700
C4318       C  0.76361219  0.95566215  0.05908576    -0.00900
C4319       C  0.77462160  0.94348853  0.03608682     0.04100
C4320       C  0.75811404  0.92803150  0.01836743    -0.03700
C4321       C  0.73000496  0.92740545  0.02285482    -0.00800
C4322       C  0.71912634  0.94037487  0.04550393     0.04100
C4323       C  0.78063115  0.97044205  0.07792867     0.38800
C4324       C  0.71214834  0.91099102  0.00650371     0.38800
C4325       C  0.69034195  0.94040191  0.04983294     0.37200
C4326       C  0.80292687  0.94734196  0.03106219     0.37200
N4327       N  0.66734091  0.94045048  0.05306333    -0.37600
N4328       N  0.82556049  0.95148401  0.02811805    -0.37600
N4329       N  0.69651509  0.89768628  0.99533754    -0.37100
N4330       N  0.79414358  0.98229372  0.09294343    -0.37100
C4331       C  0.69829031  0.86858322  0.21635413    -0.03700
C4332       C  0.69884757  0.84288677  0.20370998    -0.00900
C4333       C  0.72251858  0.82686735  0.20410332     0.04100
C4334       C  0.74734064  0.83784706  0.21298148    -0.03700
C4335       C  0.74742743  0.86528290  0.22229380    -0.00800
C4336       C  0.72302706  0.88052221  0.22397578     0.04100
C4337       C  0.67460074  0.83196173  0.19145206     0.38800
C4338       C  0.77192200  0.87701333  0.23327155     0.38800
C4339       C  0.72344178  0.90736109  0.23619160     0.37200
C4340       C  0.72017354  0.79819664  0.19808337     0.37200
N4341       N  0.72488144  0.92859136  0.24623418    -0.37600
N4342       N  0.71781220  0.77507014  0.19467413    -0.37600
N4343       N  0.79118218  0.88659311  0.24237832    -0.37100
N4344       N  0.65587553  0.82265159  0.18100815    -0.37100
C4345       C  0.66813038  0.83396931  0.25571110    -0.03700
C4346       C  0.69344586  0.82848565  0.26818124    -0.00900
C4347       C  0.70164486  0.80138728  0.27371389     0.04100
C4348       C  0.68299935  0.78008636  0.27158494    -0.03700
C4349       C  0.65756003  0.78544342  0.25973948    -0.00800
C4350       C  0.65086509  0.81180640  0.25030171     0.04100
C4351       C  0.71051689  0.85052043  0.27704444     0.38800
C4352       C  0.63796436  0.76391110  0.25760896     0.38800
C4353       C  0.62674375  0.81550968  0.23400242     0.37200
C4354       C  0.72981466  0.79527943  0.27894455     0.37200
N4355       N  0.60772008  0.81730671  0.22038475    -0.37600
N4356       N  0.75263241  0.79085313  0.28155867    -0.37600
N4357       N  0.62200443  0.74701119  0.25609930    -0.37100
N4358       N  0.72425207  0.86768132  0.28510038    -0.37100
C4359       C  0.66606431  0.92553913  0.20661667    -0.03700
C4360       C  0.66644091  0.92179305  0.17835587    -0.00900
C4361       C  0.67235790  0.94374902  0.16065044     0.04100
C4362       C  0.68358679  0.96854221  0.17032821    -0.03700
C4363       C  0.68232140  0.97238602  0.19888503    -0.00800
C4364       C  0.67254993  0.95174520  0.21635108     0.04100
C4365       C  0.65791612  0.89615107  0.16679072     0.38800
C4366       C  0.69109696  0.99748058  0.21130405     0.38800
C4367       C  0.67007288  0.95743663  0.24481417     0.37200
C4368       C  0.66222699  0.94202123  0.13331524     0.37200
N4369       N  0.66824509  0.96232475  0.26745276    -0.37600
N4370       N  0.65326562  0.94031263  0.11179843    -0.37600
N4371       N  0.69831122  0.01665497  0.22270234    -0.37100
N4372       N  0.65038943  0.87651333  0.15639075    -0.37100
C4373       C  0.61853986  0.86350090  0.27648419    -0.03700
C4374       C  0.59155107  0.85883005  0.26870145    -0.00900
C4375       C  0.57385099  0.84438245  0.28560331     0.04100
C4376       C  0.58248426  0.83437115  0.31143454    -0.03700
C4377       C  0.60920706  0.84102377  0.31978775    -0.00800
C4378       C  0.62689138  0.85505218  0.30251437     0.04100
C4379       C  0.58186414  0.86767693  0.24239899     0.38800
C4380       C  0.61878455  0.83469532  0.34673102     0.38800
C4381       C  0.65341937  0.86218111  0.31256114     0.37200
C4382       C  0.54690615  0.84039937  0.27508378     0.37200
N4383       N  0.67409356  0.86814661  0.32165991    -0.37600
N4384       N  0.52579715  0.83907592  0.26505487    -0.37600
N4385       N  0.62710993  0.82970013  0.36802451    -0.37100
N4386       N  0.57334615  0.87403272  0.22153942    -0.37100
C4387       C  0.61441692  0.92151847  0.24881005    -0.03700
C4388       C  0.60689679  0.92777514  0.27548335    -0.00900
C4389       C  0.58112257  0.93883345  0.28097398     0.04100
C4390       C  0.56407446  0.94803730  0.25967334    -0.03700
C4391       C  0.57428021  0.94662312  0.23309950    -0.00800
C4392       C  0.59797054  0.93164723  0.22761448     0.04100
C4393       C  0.62616936  0.92429727  0.29738948     0.38800
C4394       C  0.56113610  0.96105784  0.21091511     0.38800
C4395       C  0.60313912  0.92481225  0.19988580     0.37200
C4396       C  0.57278660  0.94107912  0.30868013     0.37200
N4397       N  0.60497133  0.91993911  0.17726112    -0.37600
N4398       N  0.56628922  0.94283565  0.33083583    -0.37600
N4399       N  0.55095116  0.97267480  0.19318988    -0.37100
N4400       N  0.64137056  0.92268489  0.31517537    -0.37100
C4401       C  0.34393652  0.81946953  0.24522804    -0.03700
C4402       C  0.32312862  0.81013318  0.26185878    -0.00900
C4403       C  0.29631424  0.80719680  0.25182856     0.04100
C4404       C  0.28951127  0.81358651  0.22466881    -0.03700
C4405       C  0.31124188  0.82094158  0.20756958    -0.00800
C4406       C  0.33774173  0.82444518  0.21796008     0.04100
C4407       C  0.32890458  0.80474299  0.28996157     0.38800
C4408       C  0.30723514  0.82478441  0.17887256     0.38800
C4409       C  0.35887985  0.83313282  0.20022082     0.37200
C4410       C  0.27602818  0.79712786  0.26980088     0.37200
N4411       N  0.37549906  0.83969999  0.18565526    -0.37600
N4412       N  0.26004664  0.78900649  0.28432039    -0.37600
N4413       N  0.30466937  0.82750845  0.15588387    -0.37100
N4414       N  0.33281377  0.80042905  0.31251440    -0.37100
C4415       C  0.39749950  0.78421945  0.25700191    -0.03700
C4416       C  0.37776975  0.77053803  0.24218066    -0.00900
C4417       C  0.36034690  0.75363211  0.25635285     0.04100
C4418       C  0.36657704  0.74823872  0.28408315    -0.03700
C4419       C  0.39368550  0.75271027  0.29267980    -0.00800
C4420       C  0.41019927  0.76721016  0.27561001     0.04100
C4421       C  0.37730282  0.77215931  0.21325196     0.38800
C4422       C  0.40633008  0.73984570  0.31570262     0.38800
C4423       C  0.43668195  0.75680326  0.26972675     0.37200
C4424       C  0.33727373  0.74233798  0.24225854     0.37200
N4425       N  0.45765065  0.74806575  0.26451730    -0.37600
N4426       N  0.31890173  0.73341906  0.23084860    -0.37600
N4427       N  0.41780045  0.72908410  0.33318220    -0.37100
N4428       N  0.37710793  0.77282041  0.19002532    -0.37100
C4429       C  0.33226497  0.91329105  0.21430438    -0.03700
C4430       C  0.36005970  0.90869853  0.21103995    -0.00900
C4431       C  0.37441880  0.89070545  0.22842371     0.04100
C4432       C  0.36124025  0.87796199  0.25000142    -0.03700
C4433       C  0.33366243  0.88414715  0.25416168    -0.00800
C4434       C  0.31931859  0.90157523  0.23628378     0.04100
C4435       C  0.37377463  0.92268679  0.18976436     0.38800
C4436       C  0.32013854  0.87342917  0.27734479     0.38800
C4437       C  0.29122749  0.90815385  0.24067052     0.37200
C4438       C  0.40242028  0.88420782  0.22326420     0.37200
N4439       N  0.26882003  0.91360483  0.24410003    -0.37600
N4440       N  0.42469749  0.87876036  0.21912408    -0.37600
N4441       N  0.30899473  0.86546177  0.29592140    -0.37100
N4442       N  0.38478247  0.93406861  0.17291921    -0.37100
C4443       C  0.43178530  0.81635371  0.29864398    -0.03700
C4444       C  0.42729787  0.80597695  0.32465679    -0.00900
C4445       C  0.44836536  0.79302019  0.33994553     0.04100
C4446       C  0.47564352  0.79313893  0.33129911    -0.03700
C4447       C  0.47888554  0.79979693  0.30364361    -0.00800
C4448       C  0.45778502  0.81250575  0.28804641     0.04100
C4449       C  0.40080679  0.80899899  0.33609490     0.38800
C4450       C  0.50261591  0.79004350  0.29007912     0.38800
C4451       C  0.46228741  0.82004027  0.26038723     0.37200
C4452       C  0.44043814  0.77571908  0.36181897     0.37200
N4453       N  0.46572111  0.82588551  0.23821788    -0.37600
N4454       N  0.43332570  0.76188301  0.37906195    -0.37600
N4455       N  0.52185464  0.78215904  0.27968311    -0.37100
N4456       N  0.37990630  0.81174775  0.34567411    -0.37100
C4457       C  0.41235285  0.87998747  0.29291972    -0.03700
C4458       C  0.40196162  0.90600440  0.28658700    -0.00900
C4459       C  0.41927750  0.92599104  0.27697886     0.04100
C4460       C  0.44736064  0.92184244  0.27933895    -0.03700
C4461       C  0.45739933  0.89864565  0.29302680    -0.00800
C4462       C  0.43942731  0.87882633  0.30182368     0.04100
C4463       C  0.37525316  0.91375879  0.29515766     0.38800
C4464       C  0.48594443  0.89572884  0.29924814     0.38800
C4465       C  0.44576072  0.86606871  0.32732757     0.37200
C4466       C  0.40801962  0.95041103  0.26463663     0.37200
N4467       N  0.45129521  0.85723245  0.34826402    -0.37600
N4468       N  0.39869907  0.96942907  0.25417991    -0.37600
N4469       N  0.50870964  0.89347429  0.30415241    -0.37100
N4470       N  0.35428533  0.92057943  0.30262780    -0.37100
C4471       C  0.48584985  0.26627494  0.30817865    -0.03700
C4472       C  0.47926900  0.29378258  0.31441667    -0.00900
C4473       C  0.48380252  0.31486678  0.29541907     0.04100
C4474       C  0.49842492  0.30935452  0.27169722    -0.03700
C4475       C  0.50417145  0.28206443  0.26535831    -0.00800
C4476       C  0.49493176  0.26095356  0.28173859     0.04100
C4477       C  0.46776046  0.30088321  0.34004118     0.38800
C4478       C  0.51882824  0.27534669  0.24124342     0.38800
C4479       C  0.49073624  0.23494717  0.26890434     0.37200
C4480       C  0.47371948  0.34201038  0.30100768     0.37200
N4481       N  0.48690393  0.21595747  0.25569714    -0.37600
N4482       N  0.46518099  0.36327282  0.30668681    -0.37600
N4483       N  0.53040017  0.26933924  0.22210357    -0.37100
N4484       N  0.45828844  0.30709414  0.36026774    -0.37100
C4485       C  0.45287513  0.21023093  0.41221400    -0.03700
C4486       C  0.43642530  0.19180259  0.42676823    -0.00900
C4487       C  0.41840001  0.20127717  0.44662314     0.04100
C4488       C  0.42114227  0.22737721  0.45832736    -0.03700
C4489       C  0.44181436  0.24388428  0.44814934    -0.00800
C4490       C  0.45586170  0.23650172  0.42426169     0.04100
C4491       C  0.43960145  0.16247688  0.42412913     0.38800
C4492       C  0.45030424  0.26746864  0.46340529     0.38800
C4493       C  0.47454039  0.25580245  0.41339232     0.37200
C4494       C  0.39626482  0.18394261  0.45347461     0.37200
N4495       N  0.48911648  0.27183654  0.40513224    -0.37600
N4496       N  0.37845195  0.16946859  0.45692250    -0.37600
N4497       N  0.45833050  0.28574859  0.47572757    -0.37100
N4498       N  0.44206516  0.13903041  0.42254175    -0.37100
C4499       C  0.55872531  0.20593829  0.43920001    -0.03700
C4500       C  0.56374021  0.23394795  0.43782030    -0.00900
C4501       C  0.57822988  0.24688428  0.45856759     0.04100
C4502       C  0.59123906  0.23126881  0.47901329    -0.03700
C4503       C  0.58663661  0.20280073  0.47991165    -0.00800
C4504       C  0.56946806  0.19051553  0.46064000     0.04100
C4505       C  0.55392020  0.24939142  0.41480622     0.38800
C4506       C  0.60029825  0.18570906  0.49963499     0.38800
C4507       C  0.56247644  0.16203071  0.46276600     0.37200
C4508       C  0.57739251  0.27635471  0.45976583     0.37200
N4509       N  0.55658064  0.13935930  0.46447918    -0.37600
N4510       N  0.57498702  0.29983423  0.46030440    -0.37600
N4511       N  0.61108255  0.17142312  0.51493776    -0.37100
N4512       N  0.54670617  0.26167639  0.39616976    -0.37100
C4513       C  0.23657962  0.13799625  0.24296674    -0.03700
C4514       C  0.24473516  0.13240045  0.26963100    -0.00900
C4515       C  0.26750649  0.11589619  0.27472986     0.04100
C4516       C  0.28436055  0.10787103  0.25351752    -0.03700
C4517       C  0.27465269  0.11088815  0.22677014    -0.00800
C4518       C  0.25025503  0.12510300  0.22172693     0.04100
C4519       C  0.23025359  0.14412754  0.29198450     0.38800
C4520       C  0.28948786  0.10076428  0.20399239     0.38800
C4521       C  0.23841116  0.12490572  0.19490762     0.37200
C4522       C  0.27311019  0.10651470  0.30184518     0.37200
N4523       N  0.22888150  0.12375361  0.17360235    -0.37600
N4524       N  0.27657238  0.09853031  0.32348697    -0.37600
N4525       N  0.29993743  0.09370233  0.18454229    -0.37100
N4526       N  0.21912921  0.15349658  0.31007966    -0.37100
C4527       C  0.31702417  0.20402018  0.29042019    -0.03700
C4528       C  0.31353758  0.19406346  0.26411279    -0.00900
C4529       C  0.31650654  0.16611765  0.25903690     0.04100
C4530       C  0.32118129  0.14785128  0.28059190    -0.03700
C4531       C  0.32094152  0.15765063  0.30725232    -0.00800
C4532       C  0.31946321  0.18584138  0.31214117     0.04100
C4533       C  0.30960740  0.21294987  0.24189833     0.38800
C4534       C  0.32329969  0.13907997  0.32972660     0.38800
C4535       C  0.32212450  0.19599799  0.33936465     0.37200
C4536       C  0.31922741  0.15716214  0.23144892     0.37200
N4537       N  0.32405814  0.20346469  0.36135127    -0.37600
N4538       N  0.32214696  0.15110497  0.20921355    -0.37600
N4539       N  0.32483759  0.12503608  0.34834218    -0.37100
N4540       N  0.30659999  0.22793257  0.22415683    -0.37100
C4541       C  0.37493803  0.11967864  0.29675599    -0.03700
C4542       C  0.38783244  0.14442166  0.29019304    -0.00900
C4543       C  0.40874987  0.15439304  0.30682638     0.04100
C4544       C  0.41884945  0.13857538  0.32828264    -0.03700
C4545       C  0.40605721  0.11433359  0.33518219    -0.00800
C4546       C  0.38343819  0.10554935  0.32028399     0.04100
C4547       C  0.38080280  0.15955612  0.26612990     0.38800
C4548       C  0.41566415  0.09911250  0.35840141     0.38800
C4549       C  0.36753619  0.08361303  0.33087345     0.37200
C4550       C  0.41930788  0.18148618  0.30274116     0.37200
N4551       N  0.35463896  0.06684031  0.34041895    -0.37600
N4552       N  0.42739385  0.20331331  0.29997636    -0.37600
N4553       N  0.42330828  0.08691072  0.37693170    -0.37100
N4554       N  0.37657920  0.17238788  0.24701198    -0.37100
C4555       C  0.29757823  0.01853818  0.20011158    -0.03700
C4556       C  0.32258590  0.03099892  0.19496490    -0.00900
C4557       C  0.33272281  0.05094745  0.21252306     0.04100
C4558       C  0.32006876  0.05598211  0.23725936    -0.03700
C4559       C  0.29862869  0.03927948  0.24488750    -0.00800
C4560       C  0.28859283  0.01947160  0.22697810     0.04100
C4561       C  0.33961516  0.02145812  0.17334051     0.38800
C4562       C  0.28721051  0.04182538  0.27136883     0.38800
C4563       C  0.27274584  0.99748104  0.23761976     0.37200
C4564       C  0.35370006  0.06836832  0.20273482     0.37200
N4565       N  0.26080109  0.97952577  0.24633697    -0.37600
N4566       N  0.36950793  0.08188637  0.19263713    -0.37600
N4567       N  0.27798171  0.04328768  0.29250404    -0.37100
N4568       N  0.35344293  0.01350030  0.15648596    -0.37100
C4569       C  0.37726014  0.06411241  0.26719746    -0.03700
C4570       C  0.37807446  0.03996023  0.28269146    -0.00900
C4571       C  0.40280941  0.02618331  0.28726131     0.04100
C4572       C  0.42530114  0.03301860  0.27191429    -0.03700
C4573       C  0.42328460  0.05499453  0.25361754    -0.00800
C4574       C  0.40054066  0.07213297  0.25361533     0.04100
C4575       C  0.35384234  0.02890678  0.29387967     0.38800
C4576       C  0.44400859  0.05962060  0.23395201     0.38800
C4577       C  0.40137220  0.09772944  0.23916073     0.37200
C4578       C  0.40472630  0.00439425  0.30689705     0.37200
N4579       N  0.40276467  0.11786250  0.22722706    -0.37600
N4580       N  0.40626695  0.98718089  0.32273416    -0.37600
N4581       N  0.46015457  0.06305097  0.21785242    -0.37100
N4582       N  0.33510616  0.01904264  0.30309876    -0.37100
C4583       C  0.66089209  0.14697835  0.25211433    -0.03700
C4584       C  0.68042624  0.14388964  0.27299154    -0.00900
C4585       C  0.70707689  0.15258205  0.26936324     0.04100
C4586       C  0.71448464  0.16419792  0.24479574    -0.03700
C4587       C  0.69524031  0.16691860  0.22380435    -0.00800
C4588       C  0.66875417  0.15766587  0.22713612     0.04100
C4589       C  0.67354354  0.13026710  0.29774915     0.38800
C4590       C  0.70235678  0.18077617  0.19924281     0.38800
C4591       C  0.64978244  0.15956302  0.20480778     0.37200
C4592       C  0.72690679  0.14942691  0.29085689     0.37200
N4593       N  0.63518534  0.16118580  0.18652173    -0.37600
N4594       N  0.74263654  0.14689753  0.30809424    -0.37600
N4595       N  0.70800600  0.19219119  0.17985817    -0.37100
N4596       N  0.66836895  0.11879325  0.31724514    -0.37100
C4597       C  0.62418658  0.18123427  0.28407197    -0.03700
C4598       C  0.63869248  0.18215781  0.30844979    -0.00900
C4599       C  0.66244284  0.19706850  0.31005788     0.04100
C4600       C  0.66881515  0.21526189  0.28944227    -0.03700
C4601       C  0.65322217  0.21612950  0.26577593    -0.00800
C4602       C  0.62983478  0.20046997  0.26385178     0.04100
C4603       C  0.63041056  0.16664778  0.33142903     0.38800
C4604       C  0.66290938  0.23053883  0.24254518     0.38800
C4605       C  0.61370369  0.20112697  0.23937958     0.37200
C4606       C  0.68148001  0.19272667  0.33213074     0.37200
N4607       N  0.60123524  0.20198152  0.21956215    -0.37600
N4608       N  0.69691829  0.18911098  0.34945107    -0.37600
N4609       N  0.67100428  0.24129963  0.22371064    -0.37100
N4610       N  0.62483575  0.15539167  0.35091412    -0.37100
C4611       C  0.64827353  0.07419097  0.17933316    -0.03700
C4612       C  0.66445465  0.07824489  0.20215686    -0.00900
C4613       C  0.65310419  0.08862876  0.22559151     0.04100
C4614       C  0.62707967  0.10093243  0.22465381    -0.03700
C4615       C  0.61217504  0.10014160  0.20005268    -0.00800
C4616       C  0.62221585  0.08527813  0.17800285     0.04100
C4617       C  0.69314042  0.07251418  0.20100151     0.38800
C4618       C  0.58809967  0.11663502  0.19613461     0.38800
C4619       C  0.60673053  0.08270997  0.15326580     0.37200
C4620       C  0.66822581  0.08449021  0.25030991     0.37200
N4621       N  0.59459602  0.08073398  0.13334071    -0.37600
N4622       N  0.68156634  0.07930213  0.26891240    -0.37600
N4623       N  0.56939550  0.13028004  0.19177797    -0.37100
N4624       N  0.71611356  0.06861210  0.19981716    -0.37100
C4625       C  0.57126924  0.14909369  0.29725534    -0.03700
C4626       C  0.56983631  0.13549818  0.32233404    -0.00900
C4627       C  0.54998159  0.14331086  0.34144110     0.04100
C4628       C  0.52947327  0.16267752  0.33443213    -0.03700
C4629       C  0.52745031  0.16922840  0.30690030    -0.00800
C4630       C  0.55007211  0.16718636  0.29039518     0.04100
C4631       C  0.58882244  0.11374985  0.32877357     0.38800
C4632       C  0.50118148  0.17069556  0.29416383     0.38800
C4633       C  0.55094930  0.18407535  0.26670171     0.37200
C4634       C  0.54922510  0.12914226  0.36687754     0.37200
N4635       N  0.55079389  0.19821132  0.24813516    -0.37600
N4636       N  0.54884089  0.11762870  0.38713008    -0.37600
N4637       N  0.48010013  0.16962302  0.28404100    -0.37100
N4638       N  0.60398670  0.09659127  0.33461037    -0.37100
C4639       C  0.53767945  0.05330821  0.26300240    -0.03700
C4640       C  0.56534698  0.04880120  0.26772682    -0.00900
C4641       C  0.58290517  0.07083957  0.26822169     0.04100
C4642       C  0.57365573  0.09687291  0.26002525    -0.03700
C4643       C  0.54596381  0.10103569  0.25428297    -0.00800
C4644       C  0.52783458  0.07994717  0.25882761     0.04100
C4645       C  0.57591358  0.02186837  0.27396552     0.38800
C4646       C  0.53569084  0.12579725  0.24197103     0.38800
C4647       C  0.49985644  0.08678641  0.26343590     0.37200
C4648       C  0.60963335  0.06674955  0.27970964     0.37200
N4649       N  0.47818475  0.09359266  0.26865691    -0.37600
N4650       N  0.63022285  0.06250048  0.29011493    -0.37600
N4651       N  0.52610173  0.14437626  0.23099230    -0.37100
N4652       N  0.58573921  0.00108788  0.27936373    -0.37100
loop_ 
_geom_bond_atom_site_label_1 
_geom_bond_atom_site_label_2 
_geom_bond_distance 
_geom_bond_site_symmetry_2 
_ccdc_geom_bond_type 
N1            C5   1.353       .  A
N1            C2   1.356       .  A
N1         C4597   1.429       .  S
C2            C3   1.376       .  A
C2         C4583   1.502       .  S
C3            C4   1.402       .  A
C3         C4614   1.494       .  S
C4            C5   1.399       .  A
C4         C4642   1.475       .  S
C5         C4625   1.512       .  S
N6           C10   1.353       .  A
N6            C7   1.357       .  A
N6         C4530   1.440       .  S
C7            C8   1.390       .  A
C7         C4516   1.494       .  S
C8            C9   1.395       .  A
C8         C4558   1.483       .  S
C9           C10   1.389       .  A
C9         C4569   1.483       .  S
C10        C4541   1.502       .  S
C11          C13   1.540       .  S
C11          C15   1.550       .  S
C11          C14   1.553       .  S
C11        C4628   1.572       .  S
C12          C16   1.537       .  S
C12          C18   1.533       .  S
C12          C17   1.569       .  S
C12        C4485   1.585       .  S
C13          C21   1.389       .  A
C13          C16   1.404       .  A
C14          C25   1.376       .  A
C14          C17   1.402       .  A
C15          C29   1.385       .  A
C15          C18   1.406       .  A
C16          C19   1.372       .  A
C17          C23   1.399       .  A
C18          C26   1.376       .  A
C19          N20   1.347       .  A
C19          H32   1.082       .  S
N20          C21   1.356       .  A
N20        C4499   1.433       .  S
C21          H22   1.082       .  S
C23          N24   1.375       .  A
C23          H33   1.079       .  S
N24          C25   1.357       .  A
N24        C4471   1.470       .  S
C25          H31   1.080       .  S
C26          N27   1.347       .  A
C26          H28   1.083       .  S
N27          C29   1.355       .  A
N27        C4544   1.434       .  S
C29          H30   1.081       .  S
N34          C38   1.375       .  A
N34          C35   1.368       .  A
N34        C4415   1.458       .  S
C35          C36   1.382       .  A
C35        C4401   1.519       .  S
C36          C37   1.418       .  A
C36        C4432   1.507       .  S
C37          C38   1.417       .  A
C37        C4457   1.512       .  S
C38        C4443   1.532       .  S
N39          C43   1.356       .  A
N39          C40   1.367       .  A
N39        C4345   1.459       .  S
C40          C41   1.411       .  A
C40        C4331   1.500       .  S
C41          C42   1.426       .  A
C41        C4359   1.536       .  S
C42          C43   1.413       .  A
C42        C4387   1.505       .  S
C43        C4373   1.527       .  S
C44          C46   1.517       .  S
C44          C48   1.531       .  S
C44          C47   1.562       .  S
C44        C4306   1.580       .  S
C45          C49   1.570       .  S
C45          C51   1.538   1_565  S
C45          C50   1.538   1_565  S
C45        C4362   1.598       .  S
C46          C54   1.357   1_545  A
C46          C49   1.419   1_545  A
C47          C58   1.393       .  A
C47          C50   1.398       .  A
C48          C62   1.373       .  A
C48          C51   1.404       .  A
C49          C52   1.395       .  A
C50          C56   1.364   1_545  A
C51          C59   1.370       .  A
C52          N53   1.359       .  A
C52          H65   1.082       .  S
N53          C54   1.337       .  A
N53        C4317   1.428       .  S
C54          H55   1.083   1_565  S
C56          N57   1.359   1_565  A
C56          H66   1.076       .  S
N57          C58   1.365       .  A
N57        C4289   1.467   1_545  S
C58          H64   1.076       .  S
C59          N60   1.355       .  A
C59          H61   1.082       .  S
N60          C62   1.354       .  A
N60        C4611   1.427       .  S
C62          H63   1.083       .  S
C67          C69   1.563       .  S
C67          C71   1.531       .  S
C67          C70   1.572       .  S
C67        C4275   1.607       .  S
C68          C72   1.569       .  S
C68          C74   1.555       .  S
C68          C73   1.566       .  S
C68        C4446   1.596       .  S
C69          C77   1.391       .  A
C69          C72   1.403       .  A
C70          C81   1.403       .  A
C70          C73   1.406       .  A
C71          C85   1.370       .  A
C71          C74   1.392       .  A
C72          C75   1.387       .  A
C73          C79   1.392       .  A
C74          C82   1.397       .  A
C75          N76   1.368       .  A
C75          H88   1.077       .  S
N76          C77   1.375       .  A
N76        C4376   1.484       .  S
C77          H78   1.080       .  S
C79          N80   1.369       .  A
C79          H89   1.081       .  S
N80          C81   1.372       .  A
N80        C4247   1.481       .  S
C81          H87   1.082       .  S
C82          N83   1.358       .  A
C82          H84   1.078       .  S
N83          C85   1.343       .  A
N83        C4261   1.437       .  S
C85          H86   1.083       .  S
C90          C92   1.533       .  S
C90          C94   1.530   1_565  S
C90          C93   1.547       .  S
C90        C4555   1.533   1_565  S
C91          C95   1.545       .  S
C91          C97   1.549       .  S
C91          C96   1.579       .  S
C91        C4233   1.560       .  S
C92         C100   1.376       .  A
C92          C95   1.386       .  A
C93         C104   1.382   1_565  A
C93          C96   1.401       .  A
C94         C108   1.390       .  A
C94          C97   1.384   1_545  A
C95          C98   1.391       .  A
C96         C102   1.394       .  A
C97         C105   1.376       .  A
C98          N99   1.364       .  A
C98         H111   1.082       .  S
N99         C100   1.351       .  A
N99        C4429   1.444       .  S
C100        H101   1.083       .  S
C102        N103   1.366       .  A
C102        H112   1.066       .  S
N103        C104   1.362   1_565  A
N103       C4208   1.474       .  S
C104        H110   1.078       .  S
C105        N106   1.352   1_565  A
C105        H107   1.082       .  S
N106        C108   1.359       .  A
N106       C4219   1.447       .  S
C108        H109   1.082       .  S
N113        C117   1.355       .  A
N113        C114   1.363       .  A
N113       C4135   1.437       .  S
C114        C115   1.416       .  A
C114       C4166   1.518       .  S
C115        C116   1.382       .  A
C115       C4191   1.479       .  S
C116        C117   1.370       .  A
C116       C4180   1.493       .  S
C117       C4149   1.480       .  S
N118        C122   1.369       .  A
N118        C119   1.376       .  A
N118       C4079   1.434       .  S
C119        C120   1.401       .  A
C119       C4065   1.535       .  S
C120        C121   1.431       .  A
C120       C4110   1.552       .  S
C121        C122   1.422       .  A
C121       C4121   1.480       .  S
C122       C4096   1.580       .  S
C123        C125   1.551       .  S
C123        C127   1.540       .  S
C123        C126   1.581       .  S
C123       C4054   1.643       .  S
C124        C128   1.542       .  S
C124        C130   1.545       .  S
C124        C129   1.551       .  S
C124       C4093   1.631       .  S
C125        C133   1.373       .  A
C125        C128   1.435       .  A
C126        C137   1.401       .  A
C126        C129   1.420       .  A
C127        C141   1.376       .  A
C127        C130   1.412       .  A
C128        C131   1.382       .  A
C129        C135   1.371       .  A
C130        C138   1.375       .  A
C131        N132   1.349       .  A
C131        H144   1.083       .  S
N132        C133   1.347       .  A
N132       C4037   1.430       .  S
C133        H134   1.083       .  S
C135        N136   1.348       .  A
C135        H145   1.081       .  S
N136        C137   1.366       .  A
N136       C4023   1.449       .  S
C137        H143   1.081       .  S
C138        N139   1.360       .  A
C138        H140   1.083       .  S
N139        C141   1.357       .  A
N139       C4177   1.441       .  S
C141        H142   1.083       .  S
N146        C150   1.352       .  A
N146        C147   1.368       .  A
N146       C3967   1.433       .  S
C147        C148   1.398       .  A
C147       C3953   1.503       .  S
C148        C149   1.420       .  A
C148       C3984   1.546       .  S
C149        C150   1.416       .  A
C149       C4009   1.468       .  S
C150       C3995   1.554       .  S
N151        C155   1.362       .  A
N151        C152   1.363       .  A
N151       C3883   1.459       .  S
C152        C153   1.393       .  A
C152       C3897   1.478       .  S
C153        C154   1.401       .  A
C153       C3928   1.533       .  S
C154        C155   1.411       .  A
C154       C3939   1.478       .  S
C155       C3911   1.518       .  S
C156        C158   1.561       .  S
C156        C160   1.586       .  S
C156        C159   1.548       .  S
C156       C3855   1.588       .  S
C157        C161   1.505   1_455  S
C157        C163   1.517       .  S
C157        C162   1.556       .  S
C157       C3914   1.552   1_455  S
C158        C166   1.386       .  A
C158        C161   1.388   1_455  A
C159        C170   1.385       .  A
C159        C162   1.402       .  A
C160        C174   1.404       .  A
C160        C163   1.422       .  A
C161        C164   1.368       .  A
C162        C168   1.387       .  A
C163        C171   1.360       .  A
C164        N165   1.349       .  A
C164        H177   1.083       .  S
N165        C166   1.358   1_655  A
N165       C3872   1.431       .  S
C166        H167   1.081       .  S
C168        N169   1.356       .  A
C168        H178   1.078   1_455  S
N169        C170   1.359       .  A
N169       C3841   1.449       .  S
C170        H176   1.082       .  S
C171        N172   1.333       .  A
C171        H173   1.084       .  S
N172        C174   1.358       .  A
N172       C4163   1.441       .  S
C174        H175   1.062       .  S
C179        C181   1.543       .  S
C179        C183   1.557       .  S
C179        C182   1.577       .  S
C179       C3998   1.595       .  S
C180        C184   1.546       .  S
C180        C186   1.563       .  S
C180        C185   1.558       .  S
C180       C3827   1.611       .  S
C181        C189   1.391       .  A
C181        C184   1.393       .  A
C182        C193   1.397       .  A
C182        C185   1.401       .  A
C183        C197   1.390       .  A
C183        C186   1.419       .  A
C184        C187   1.377       .  A
C185        C191   1.382       .  A
C186        C194   1.398       .  A
C187        N188   1.353       .  A
C187        H200   1.076       .  S
N188        C189   1.366       .  A
N188       C3813   1.467       .  S
C189        H190   1.078       .  S
C191        N192   1.370       .  A
C191        H201   1.079       .  S
N192        C193   1.375       .  A
N192       C3799   1.488       .  S
C193        H199   1.076       .  S
C194        N195   1.361       .  A
C194        H196   1.082       .  S
N195        C197   1.357       .  A
N195       C3925   1.459       .  S
C197        H198   1.082       .  S
C202        C204   1.531       .  S
C202        C206   1.540   1_655  S
C202        C205   1.576       .  S
C202       C3981   1.596       .  S
C203        C207   1.538   1_455  S
C203        C209   1.600       .  S
C203        C208   1.579       .  S
C203       C3771   1.645       .  S
C204        C212   1.385       .  A
C204        C207   1.381       .  A
C205        C216   1.397       .  A
C205        C208   1.420   1_655  A
C206        C220   1.378       .  A
C206        C209   1.423       .  A
C207        C210   1.366       .  A
C208        C214   1.400       .  A
C209        C217   1.420       .  A
C210        N211   1.361       .  A
C210        H223   1.078       .  S
N211        C212   1.363       .  A
N211       C3788   1.460       .  S
C212        H213   1.073       .  S
C214        N215   1.367       .  A
C214        H224   1.082       .  S
N215        C216   1.361   1_455  A
N215       C3757   1.468   1_455  S
C216        H222   1.080       .  S
C217        N218   1.380       .  A
C217        H219   1.082       .  S
N218        C220   1.348       .  A
N218       C4107   1.471       .  S
C220        H221   1.083       .  S
N225        C229   1.355       .  A
N225        C226   1.353       .  A
N225       C3687   1.445       .  S
C226        C227   1.387       .  A
C226       C3704   1.488       .  S
C227        C228   1.399       .  A
C227       C3732   1.492       .  S
C228        C229   1.394       .  A
C228       C3743   1.500       .  S
C229       C3715   1.485       .  S
N230        C234   1.364       .  A
N230        C231   1.377       .  A
N230       C3617   1.462       .  S
C231        C232   1.415       .  A
C231       C3631   1.495       .  S
C232        C233   1.421       .  A
C232       C3648   1.571       .  S
C233        C234   1.419       .  A
C233       C3676   1.468       .  S
C234       C3659   1.563       .  S
C235        C237   1.524       .  S
C235        C239   1.537       .  S
C235        C238   1.547       .  S
C235       C3603   1.612       .  S
C236        C240   1.559       .  S
C236        C242   1.568       .  S
C236        C241   1.554       .  S
C236       C3645   1.621       .  S
C237        C245   1.352       .  A
C237        C240   1.399       .  A
C238        C249   1.374       .  A
C238        C241   1.396       .  A
C239        C253   1.375       .  A
C239        C242   1.438       .  A
C240        C243   1.388       .  A
C241        C247   1.386       .  A
C242        C250   1.378       .  A
C243        N244   1.375       .  A
C243        H256   1.081       .  S
N244        C245   1.351       .  A
N244       C3589   1.458       .  S
C245        H246   1.071       .  S
C247        N248   1.365       .  A
C247        H257   1.078       .  S
N248        C249   1.359       .  A
N248       C3578   1.459       .  S
C249        H255   1.082       .  S
C250        N251   1.351       .  A
C250        H252   1.081       .  S
N251        C253   1.350       .  A
N251       C3729   1.431       .  S
C253        H254   1.083       .  S
N258        C262   1.357       .  A
N258        C259   1.369       .  A
N258       C3505   1.445       .  S
C259        C260   1.407       .  A
C259       C3522   1.512       .  S
C260        C261   1.409       .  A
C260       C3547   1.524       .  S
C261        C262   1.397       .  A
C261       C3561   1.485       .  S
C262       C3533   1.524       .  S
N263        C267   1.351       .  A
N263        C264   1.368       .  A
N263       C3449   1.439       .  S
C264        C265   1.412       .  A
C264       C3435   1.503       .  S
C265        C266   1.433       .  A
C265       C3463   1.569       .  S
C266        C267   1.418       .  A
C266       C3491   1.465       .  S
C267       C3480   1.564       .  S
C268        C270   1.527   1_554  S
C268        C272   1.539       .  S
C268        C271   1.561       .  S
C268       C3410   1.606       .  S
C269        C273   1.540       .  S
C269        C275   1.543   1_556  S
C269        C274   1.564   1_556  S
C269       C3466   1.607       .  S
C270        C278   1.355       .  A
C270        C273   1.400       .  A
C271        C282   1.386       .  A
C271        C274   1.417       .  A
C272        C286   1.371       .  A
C272        C275   1.415       .  A
C273        C276   1.378       .  A
C274        C280   1.385       .  A
C275        C283   1.372       .  A
C276        N277   1.366       .  A
C276        H289   1.075       .  S
N277        C278   1.357       .  A
N277       C3424   1.452       .  S
C278        H279   1.076       .  S
C280        N281   1.354       .  A
C280        H290   1.081   1_554  S
N281        C282   1.356       .  A
N281       C3393   1.448       .  S
C282        H288   1.077       .  S
C283        N284   1.356       .  A
C283        H285   1.083       .  S
N284        C286   1.349       .  A
N284       C3718   1.424       .  S
C286        H287   1.083       .  S
C291        C293   1.515       .  S
C291        C295   1.541       .  S
C291        C294   1.567       .  S
C291       C3550   1.576       .  S
C292        C296   1.545       .  S
C292        C298   1.593       .  S
C292        C297   1.579       .  S
C292       C3379   1.621       .  S
C293        C301   1.389       .  A
C293        C296   1.390       .  A
C294        C305   1.378       .  A
C294        C297   1.416       .  A
C295        C309   1.386       .  A
C295        C298   1.412       .  A
C296        C299   1.381       .  A
C297        C303   1.401       .  A
C298        C306   1.422       .  A
C299        N300   1.344       .  A
C299        H312   1.080       .  S
N300        C301   1.343       .  A
N300       C3365   1.435       .  S
C301        H302   1.083       .  S
C303        N304   1.378       .  A
C303        H313   1.080       .  S
N304        C305   1.363       .  A
N304       C3351   1.483       .  S
C305        H311   1.072       .  S
C306        N307   1.376       .  A
C306        H308   1.080       .  S
N307        C309   1.352       .  A
N307       C3477   1.478       .  S
C309        H310   1.083       .  S
C314        C316   1.525   1_556  S
C314        C318   1.531       .  S
C314        C317   1.569   1_556  S
C314       C3340   1.573       .  S
C315        C319   1.565       .  S
C315        C321   1.568       .  S
C315        C320   1.558       .  S
C315       C3662   1.592       .  S
C316        C324   1.370       .  A
C316        C319   1.402       .  A
C317        C328   1.389   1_554  A
C317        C320   1.406       .  A
C318        C332   1.380       .  A
C318        C321   1.412   1_556  A
C319        C322   1.406       .  A
C320        C326   1.388       .  A
C321        C329   1.398       .  A
C322        N323   1.369       .  A
C322        H335   1.082       .  S
N323        C324   1.343       .  A
N323       C3323   1.451       .  S
C324        H325   1.082       .  S
C326        N327   1.360       .  A
C326        H336   1.072       .  S
N327        C328   1.361   1_554  A
N327       C3312   1.470       .  S
C328        H334   1.067       .  S
C329        N330   1.363   1_554  A
C329        H331   1.083       .  S
N330        C332   1.353       .  A
N330       C3536   1.455       .  S
C332        H333   1.083       .  S
N337        C341   1.355       .  A
N337        C338   1.367       .  A
N337       C3239   1.432       .  S
C338        C339   1.403       .  A
C338       C3256   1.529       .  S
C339        C340   1.394       .  A
C339       C3267   1.478       .  S
C340        C341   1.376       .  A
C340       C3295   1.488       .  S
C341       C3284   1.500       .  S
N342        C346   1.350       .  A
N342        C343   1.363       .  A
N342       C3183   1.429       .  S
C343        C344   1.406       .  A
C343       C3169   1.511       .  S
C344        C345   1.387       .  A
C344       C3197   1.491       .  S
C345        C346   1.375       .  A
C345       C3228   1.468       .  S
C346       C3211   1.499       .  S
N347        C351   1.364       .  A
N347        C348   1.376       .  A
N347       C3113   1.456       .  S
C348        C349   1.419       .  A
C348       C3099   1.527       .  S
C349        C350   1.420       .  A
C349       C3127   1.530       .  S
C350        C351   1.392       .  A
C350       C3155   1.493       .  S
C351       C3141   1.529       .  S
N352        C356   1.358       .  A
N352        C353   1.369       .  A
N352       C3029   1.426       .  S
C353        C354   1.388       .  A
C353       C3043   1.495       .  S
C354        C355   1.438       .  A
C354       C3071   1.589       .  S
C355        C356   1.448       .  A
C355       C3088   1.458       .  S
C356       C3057   1.606       .  S
C357        C359   1.517       .  S
C357        C361   1.542       .  S
C357        C360   1.599       .  S
C357       C3015   1.656       .  S
C358        C362   1.557       .  S
C358        C364   1.544       .  S
C358        C363   1.624       .  S
C358       C3060   1.661       .  S
C359        C367   1.353       .  A
C359        C362   1.401       .  A
C360        C371   1.410       .  A
C360        C363   1.445       .  A
C361        C375   1.376       .  A
C361        C364   1.409       .  A
C362        C365   1.394       .  A
C363        C369   1.419       .  A
C364        C372   1.379       .  A
C365        N366   1.367       .  A
C365        H378   1.081       .  S
N366        C367   1.349       .  A
N366       C3001   1.446       .  S
C367        H368   1.082       .  S
C369        N370   1.378       .  A
C369        H379   1.078       .  S
N370        C371   1.374       .  A
N370       C2987   1.501       .  S
C371        H377   1.081       .  S
C372        N373   1.359       .  A
C372        H374   1.083       .  S
N373        C375   1.357       .  A
N373       C3130   1.444       .  S
C375        H376   1.082       .  S
C380        C382   1.554   1_556  S
C380        C384   1.567       .  S
C380        C383   1.588       .  S
C380       C3074   1.623       .  S
C381        C385   1.554       .  S
C381        C387   1.513       .  S
C381        C386   1.532       .  S
C381       C2973   1.608       .  S
C382        C390   1.385       .  A
C382        C385   1.433       .  A
C383        C394   1.403       .  A
C383        C386   1.418   1_556  A
C384        C398   1.400       .  A
C384        C387   1.386   1_556  A
C385        C388   1.382       .  A
C386        C392   1.373       .  A
C387        C395   1.353   1_554  A
C388        N389   1.349       .  A
C388        H401   1.082       .  S
N389        C390   1.351       .  A
N389       C3281   1.438       .  S
C390        H391   1.083       .  S
C392        N393   1.348       .  A
C392        H402   1.083       .  S
N393        C394   1.363   1_554  A
N393       C2948   1.447       .  S
C394        H400   1.079       .  S
C395        N396   1.352       .  A
C395        H397   1.072   1_556  S
N396        C398   1.384       .  A
N396       C2959   1.474       .  S
C398        H399   1.074       .  S
C403        C405   1.511       .  S
C403        C407   1.514       .  S
C403        C406   1.578       .  S
C403       C3144   1.598       .  S
C404        C408   1.554   1_554  S
C404        C410   1.580       .  S
C404        C409   1.541   1_554  S
C404       C2931   1.612       .  S
C405        C413   1.356       .  A
C405        C408   1.404       .  A
C406        C417   1.392       .  A
C406        C409   1.413       .  A
C407        C421   1.356   1_556  A
C407        C410   1.421   1_556  A
C408        C411   1.387       .  A
C409        C415   1.379       .  A
C410        C418   1.406       .  A
C411        N412   1.357       .  A
C411        H424   1.081       .  S
N412        C413   1.336       .  A
N412       C2917   1.422       .  S
C413        H414   1.076       .  S
C415        N416   1.353       .  A
C415        H425   1.083   1_556  S
N416        C417   1.360       .  A
N416       C2903   1.446       .  S
C417        H423   1.077       .  S
C418        N419   1.367       .  A
C418        H420   1.082       .  S
N419        C421   1.337       .  A
N419       C3214   1.439       .  S
C421        H422   1.084   1_554  S
C426        C428   1.557       .  S
C426        C430   1.561       .  S
C426        C429   1.557       .  S
C426       C2878   1.555       .  S
C427        C431   1.518       .  S
C427        C433   1.541       .  S
C427        C432   1.529       .  S
C427       C3270   1.533       .  S
C428        C436   1.386       .  A
C428        C431   1.387       .  A
C429        C440   1.395       .  A
C429        C432   1.388       .  A
C430        C444   1.386       .  A
C430        C433   1.411       .  A
C431        C434   1.376       .  A
C432        C438   1.372       .  A
C433        C441   1.379       .  A
C434        N435   1.355       .  A
C434        H447   1.082       .  S
N435        C436   1.351       .  A
N435       C3200   1.435       .  S
C436        H437   1.080       .  S
C438        N439   1.347       .  A
C438        H448   1.081       .  S
N439        C440   1.369       .  A
N439       C2861   1.446       .  S
C440        H446   1.082       .  S
C441        N442   1.345       .  A
C441        H443   1.082       .  S
N442        C444   1.356       .  A
N442       C2889   1.435       .  S
C444        H445   1.079       .  S
N449        C453   1.353       .  A
N449        C450   1.344       .  A
N449       C2805   1.436       .  S
C450        C451   1.418       .  A
C450       C2819   1.524       .  S
C451        C452   1.432       .  A
C451       C2847   1.480       .  S
C452        C453   1.379       .  A
C452       C2836   1.550       .  S
C453       C2794   1.468       .  S
N454        C458   1.361       .  A
N454        C455   1.369       .  A
N454       C2721   1.461       .  S
C455        C456   1.409       .  A
C455       C2735   1.492       .  S
C456        C457   1.403       .  A
C456       C2763   1.535       .  S
C457        C458   1.402       .  A
C457       C2780   1.482       .  S
C458       C2749   1.519       .  S
N459        C463   1.351       .  A
N459        C460   1.359       .  A
N459       C2654   1.440       .  S
C460        C461   1.376       .  A
C460       C2665   1.466       .  S
C461        C462   1.400       .  A
C461       C2693   1.524       .  S
C462        C463   1.401       .  A
C462       C2707   1.458       .  S
C463       C2679   1.519       .  S
N464        C468   1.362       .  A
N464        C465   1.366       .  A
N464       C2581   1.479       .  S
C465        C466   1.401       .  A
C465       C2595   1.459       .  S
C466        C467   1.403       .  A
C466       C2623   1.548       .  S
C467        C468   1.418       .  A
C467       C2637   1.487       .  S
C468       C2609   1.511       .  S
C469        C471   1.538       .  S
C469        C473   1.548       .  S
C469        C472   1.556       .  S
C469       C2553   1.562       .  S
C470        C474   1.554       .  S
C470        C476   1.561       .  S
C470        C475   1.576       .  S
C470       C2682   1.567       .  S
C471        C479   1.390       .  A
C471        C474   1.379       .  A
C472        C483   1.389       .  A
C472        C475   1.396       .  A
C473        C487   1.372       .  A
C473        C476   1.382       .  A
C474        C477   1.384       .  A
C475        C481   1.395       .  A
C476        C484   1.411       .  A
C477        N478   1.363       .  A
C477        H490   1.080       .  S
N478        C479   1.368       .  A
N478       C2612   1.470       .  S
C479        H480   1.081       .  S
C481        N482   1.375       .  A
C481        H491   1.077       .  S
N482        C483   1.371       .  A
N482       C2539   1.487       .  S
C483        H489   1.081       .  S
C484        N485   1.382       .  A
C484        H486   1.076       .  S
N485        C487   1.353       .  A
N485       C2567   1.488       .  S
C487        H488   1.065       .  S
C492        C494   1.574   1_565  S
C492        C496   1.567       .  S
C492        C495   1.544       .  S
C492       C2626   1.607       .  S
C493        C497   1.556       .  S
C493        C499   1.540       .  S
C493        C498   1.572       .  S
C493       C2525   1.627       .  S
C494        C502   1.393       .  A
C494        C497   1.422       .  A
C495        C506   1.373       .  A
C495        C498   1.412   1_565  A
C496        C510   1.410       .  A
C496        C499   1.407   1_565  A
C497        C500   1.402       .  A
C498        C504   1.393       .  A
C499        C507   1.369   1_545  A
C500        N501   1.364       .  A
C500        H513   1.081       .  S
N501        C502   1.353       .  A
N501       C2833   1.466       .  S
C502        H503   1.079       .  S
C504        N505   1.375       .  A
C504        H514   1.080       .  S
N505        C506   1.360   1_545  A
N505       C2497   1.468       .  S
C506        H512   1.081       .  S
C507        N508   1.332       .  A
C507        H509   1.071   1_565  S
N508        C510   1.360       .  A
N508       C2511   1.456       .  S
C510        H511   1.065       .  S
C515        C517   1.581   1_545  S
C515        C519   1.560       .  S
C515        C518   1.547       .  S
C515       C2766   1.568       .  S
C516        C520   1.524       .  S
C516        C522   1.527   1_565  S
C516        C521   1.548       .  S
C516       C2469   1.550       .  S
C517        C525   1.400       .  A
C517        C520   1.412       .  A
C518        C529   1.387       .  A
C518        C521   1.392   1_545  A
C519        C533   1.403       .  A
C519        C522   1.381       .  A
C520        C523   1.375       .  A
C521        C527   1.380       .  A
C522        C530   1.365       .  A
C523        N524   1.345       .  A
C523        H536   1.082       .  S
N524        C525   1.364       .  A
N524       C2696   1.447       .  S
C525        H526   1.082       .  S
C527        N528   1.358       .  A
C527        H537   1.082       .  S
N528        C529   1.362   1_565  A
N528       C2455   1.458       .  S
C529        H535   1.077       .  S
C530        N531   1.351       .  A
C530        H532   1.072       .  S
N531        C533   1.380       .  A
N531       C2483   1.476       .  S
C533        H534   1.081       .  S
C538        C540   1.560       .  S
C538        C542   1.560       .  S
C538        C541   1.528       .  S
C538       C2822   1.589       .  S
C539        C543   1.553       .  S
C539        C545   1.567       .  S
C539        C544   1.540       .  S
C539       C2427   1.592       .  S
C540        C548   1.392       .  A
C540        C543   1.408       .  A
C541        C552   1.365       .  A
C541        C544   1.396       .  A
C542        C556   1.387       .  A
C542        C545   1.418       .  A
C543        C546   1.383       .  A
C544        C550   1.377       .  A
C545        C553   1.391       .  A
C546        N547   1.351       .  A
C546        H559   1.079       .  S
N547        C548   1.353       .  A
N547       C2441   1.444       .  S
C548        H549   1.077       .  S
C550        N551   1.366       .  A
C550        H560   1.081       .  S
N551        C552   1.358       .  A
N551       C2413   1.450       .  S
C552        H558   1.081       .  S
C553        N554   1.351       .  A
C553        H555   1.071       .  S
N554        C556   1.354       .  A
N554       C2752   1.452       .  S
C556        H557   1.077       .  S
O561       Ni567   1.906       .  S
O561        C582   1.269       .  A
O562       Ni585   1.871       .  S
O562        C571   1.262       .  A
O563       Ni567   1.900       .  S
O563       Ni585   1.894       .  S
O563       Ni579   1.889       .  S
O563        H586   0.966       .  S
C564       C2399   1.445       .  S
C564        O581   1.268       .  A
C564        O573   1.279       .  A
O565       Ni584   1.915       .  S
O565        C571   1.275       .  A
O566       Ni584   1.919       .  S
O566        C568   1.270       .  A
Ni567       O570   1.907       .  S
Ni567       O572   1.889       .  S
C568       C2385   1.502       .  S
C568        O578   1.270       .  A
O569       Ni585   1.900       .  S
O569        C575   1.267       .  A
O570        C575   1.262       .  A
C571       C2371   1.463       .  S
O572        C574   1.265       .  A
O573       Ni584   1.909       .  S
C574       C3116   1.472       .  S
C574        O580   1.278       .  A
C575       C2668   1.451       .  S
H576        O577   0.960       .  S
O577       Ni585   1.886       .  S
O577       Ni579   1.867       .  S
O577       Ni584   1.869       .  S
O578       Ni579   1.915       .  S
Ni579       O583   1.855       .  S
Ni579       O581   1.895       .  S
O580       Ni585   1.945       .  S
C582       C2357   1.427       .  S
C582        O583   1.255       .  A
O587       Ni593   1.871       .  S
O587        C608   1.251       .  A
O588       Ni611   1.904       .  S
O588        C597   1.269       .  A
O589       Ni593   1.870       .  S
O589       Ni611   1.873       .  S
O589       Ni605   1.937       .  S
O589        H612   0.966       .  S
C590       C2318   1.496       .  S
C590        O607   1.297       .  A
C590        O599   1.278       .  A
O591       Ni610   1.899       .  S
O591        C597   1.264       .  A
O592       Ni610   1.891       .  S
O592        C594   1.263       .  A
Ni593       O596   1.903       .  S
Ni593       O598   1.894       .  S
C594       C2343   1.499       .  S
C594        O604   1.286       .  A
O595       Ni611   1.930       .  S
O595        C601   1.285       .  A
O596        C601   1.278       .  A
C597       C2738   1.476       .  S
O598        C600   1.260       .  A
O599       Ni610   1.905       .  S
C600       C3886   1.488       .  S
C600        O606   1.269       .  A
C601       C3046   1.503       .  S
H602        O603   0.965       .  S
O603       Ni611   1.921       .  S
O603       Ni605   1.893       .  S
O603       Ni610   1.874       .  S
O604       Ni605   1.974       .  S
Ni605       O609   1.982       .  S
Ni605       O607   1.966       .  S
O606       Ni611   1.939       .  S
C608       C2329   1.517       .  S
C608        O609   1.284       .  A
N613        C617   1.359       .  A
N613        C614   1.354       .  A
N613       C2458   1.450       .  S
C614        C615   1.404       .  A
C614       C2315   1.506   1_565  S
C615        C616   1.410       .  A
C615       C3869   1.499   1_565  S
C616        C617   1.411       .  A
C616       C2301   1.519       .  S
C617       C2388   1.501       .  S
N618        C622   1.355       .  A
N618        C619   1.353       .  A
N618       C3844   1.462       .  S
C619        C620   1.402       .  A
C619       C2287   1.476       .  S
C620        C621   1.420       .  A
C620       C3337   1.530       .  S
C621        C622   1.416       .  A
C621       C2962   1.499       .  S
C622       C2332   1.510   1_455  S
O623       Ni629   1.921       .  S
O623        C644   1.268       .  A
O624       Ni647   1.901       .  S
O624        C633   1.260       .  A
O625       Ni629   1.900       .  S
O625       Ni647   1.900       .  S
O625       Ni641   1.916       .  S
O625        H648   0.966       .  S
C626       C2290   1.476       .  S
C626        O643   1.284       .  A
C626        O635   1.276       .  A
O627       Ni646   1.869       .  S
O627        C633   1.253       .  A
O628       Ni646   1.894       .  S
O628        C630   1.261       .  A
Ni629       O632   1.922       .  S
Ni629       O634   1.880       .  S
C630       C2259   1.480       .  S
C630        O640   1.268       .  A
O631       Ni647   1.874       .  S
O631        C637   1.265       .  A
O632        C637   1.275       .  A
C633       C2273   1.470       .  S
O634        C636   1.262       .  A
O635       Ni646   1.889       .  S
C636       C3508   1.469       .  S
C636        O642   1.272       .  A
C637       C2791   1.454       .  S
H638        O639   0.965       .  S
O639       Ni647   1.918       .  S
O639       Ni641   1.863       .  S
O639       Ni646   1.878       .  S
O640       Ni641   1.933       .  S
Ni641       O645   1.866       .  S
Ni641       O643   1.932       .  S
O642       Ni647   1.939       .  S
C644       C4138   1.450       .  S
C644        O645   1.263       .  A
N649        C653   1.361       .  A
N649        C650   1.364   1_545  A
N649       C2500   1.462       .  S
C650        C651   1.413   1_565  A
C650       C2245   1.506       .  S
C651        C652   1.411       .  A
C651       C2231   1.515   1_545  S
C652        C653   1.407       .  A
C652       C3858   1.520       .  S
C653       C2262   1.498       .  S
O654       Ni660   1.910       .  S
O654        C675   1.269       .  A
O655       Ni678   1.823       .  S
O655        C664   1.246       .  A
O656       Ni660   1.895       .  S
O656       Ni678   1.856       .  S
O656       Ni672   1.872       .  S
O656        H679   0.963       .  S
C657       C2217   1.454       .  S
C657        O674   1.257       .  A
C657        O666   1.280       .  A
O658       Ni677   1.948       .  S
O658        C664   1.281       .  A
O659       Ni677   1.925       .  S
O659        C661   1.275       .  A
Ni660       O663   1.909       .  S
Ni660       O665   1.933       .  S
C661       C2248   1.501       .  S
C661        O671   1.276       .  A
O662       Ni678   1.902       .  S
O662        C668   1.274       .  A
O663        C668   1.278       .  A
C664       C2203   1.457       .  S
O665        C667   1.268       .  A
O666       Ni677   1.947       .  S
C667       C3438   1.509       .  S
C667        O673   1.259       .  A
C668       C2189   1.488       .  S
H669        O670   0.967       .  S
O670       Ni678   1.897       .  S
O670       Ni672   1.882       .  S
O670       Ni677   1.900       .  S
O671       Ni672   1.945       .  S
Ni672       O676   1.861       .  S
Ni672       O674   1.842       .  S
O673       Ni678   1.913       .  S
C675       C2598   1.447       .  S
C675        O676   1.258       .  A
N680        C684   1.353       .  A
N680        C681   1.349   1_455  A
N680       C2178   1.446       .  S
C681        C682   1.391       .  A
C681       C2402   1.482       .  S
C682        C683   1.382   1_655  A
C682       C2920   1.476       .  S
C683        C684   1.379       .  A
C683       C3421   1.482       .  S
C684       C2206   1.467       .  S
N685        C689   1.346       .  A
N685        C686   1.346       .  A
N685       C3396   1.456       .  S
C686        C687   1.395       .  A
C686       C2161   1.464       .  S
C687        C688   1.391       .  A
C687       C4236   1.499       .  S
C688        C689   1.392       .  A
C688       C2514   1.482   1_554  S
C689       C2220   1.466   1_554  S
O690       Ni696   1.924       .  S
O690        C711   1.278       .  A
O691       Ni714   1.878       .  S
O691        C700   1.257       .  A
O692       Ni696   1.878       .  S
O692       Ni714   1.874       .  S
O692       Ni708   1.936       .  S
O692        H715   0.964       .  S
C693       C4404   1.535       .  S
C693        O710   1.295       .  A
C693        O702   1.281       .  A
O694       Ni713   1.899       .  S
O694        C700   1.262       .  A
O695       Ni713   1.892       .  S
O695        C697   1.260       .  A
Ni696       O699   1.941       .  S
Ni696       O701   1.931       .  S
C697       C3690   1.476       .  S
C697        O707   1.263       .  A
O698       Ni714   1.925       .  S
O698        C704   1.273       .  A
O699        C704   1.281       .  A
C700       C2164   1.434       .  S
O701        C703   1.273       .  A
O702       Ni713   1.932       .  S
C703       C2147   1.507       .  S
C703        O709   1.278       .  A
C704       C2133   1.499       .  S
H705        O706   0.967       .  S
O706       Ni714   1.924       .  S
O706       Ni708   1.862       .  S
O706       Ni713   1.883       .  S
O707       Ni708   1.923       .  S
Ni708       O712   1.867       .  S
Ni708       O710   1.962       .  S
O709       Ni714   1.948       .  S
C711       C2122   1.454       .  S
C711        O712   1.264       .  A
N716        C720   1.365       .  A
N716        C717   1.364   1_655  A
N716       C2091   1.490       .  S
C717        C718   1.432       .  A
C717       C2136   1.503       .  S
C718        C719   1.442   1_455  A
C718       C3407   1.550       .  S
C719        C720   1.422       .  A
C719       C2934   1.552       .  S
C720       C2105   1.492       .  S
O721       Ni727   1.914       .  S
O721        C742   1.269       .  A
O722       Ni745   1.888       .  S
O722        C731   1.261       .  A
O723       Ni727   1.881       .  S
O723       Ni745   1.869       .  S
O723       Ni739   1.905       .  S
O723        H746   0.966       .  S
C724       C2052   1.498       .  S
C724        O741   1.272       .  A
C724        O733   1.278       .  A
O725       Ni744   1.912       .  S
O725        C731   1.268       .  A
O726       Ni744   1.926       .  S
O726        C728   1.269       .  A
Ni727       O730   1.932       .  S
Ni727       O732   1.901       .  S
C728       C4334   1.508       .  S
C728        O738   1.261       .  A
O729       Ni745   1.881       .  S
O729        C735   1.275       .  A
O730        C735   1.281       .  A
C731       C3186   1.447       .  S
O732        C734   1.266       .  A
O733       Ni744   1.927       .  S
C734       C2108   1.466       .  S
C734        O740   1.264       .  A
C735       C2066   1.467       .  S
H736        O737   0.966       .  S
O737       Ni745   1.913       .  S
O737       Ni739   1.869       .  S
O737       Ni744   1.887       .  S
O738       Ni739   1.912       .  S
Ni739       O743   1.860       .  S
Ni739       O741   1.903       .  S
O740       Ni745   1.912       .  S
C742       C2077   1.458       .  S
C742        O743   1.257       .  A
N747        C751   1.359       .  A
N747        C748   1.355   1_556  A
N747       C2906   1.464       .  S
C748        C749   1.392   1_554  A
C748       C2063   1.481       .  S
C749        C750   1.392       .  A
C749       C4320   1.494   1_556  S
C750        C751   1.391       .  A
C750       C2472   1.492       .  S
C751       C2374   1.472       .  S
O752       Ni758   1.900       .  S
O752        C773   1.261       .  A
O753       Ni776   1.938       .  S
O753        C762   1.280       .  A
O754       Ni758   1.895       .  S
O754       Ni776   1.912       .  S
O754       Ni770   1.962       .  S
O754        H777   0.966       .  S
C755       C2007   1.526       .  S
C755        O772   1.303       .  A
C755        O764   1.280       .  A
O756       Ni775   1.922       .  S
O756        C762   1.271       .  A
O757       Ni775   1.910       .  S
O757        C759   1.268       .  A
Ni758       O761   1.922       .  S
Ni758       O763   1.890       .  S
C759       C2035   1.507       .  S
C759        O769   1.274       .  A
O760       Ni776   1.972       .  S
O760        C766   1.289       .  A
O761        C766   1.277       .  A
C762       C3620   1.495       .  S
O763        C765   1.264       .  A
O764       Ni775   1.924       .  S
C765       C4513   1.476       .  S
C765        O771   1.275       .  A
C766       C4068   1.529       .  S
H767        O768   0.965       .  S
O768       Ni776   1.924       .  S
O768       Ni770   1.904       .  S
O768       Ni775   1.887       .  S
O769       Ni770   1.938       .  S
Ni770       O774   1.979       .  S
Ni770       O772   1.994       .  S
O771       Ni776   1.932       .  S
C773       C2021   1.517       .  S
C773        O774   1.282       .  A
N778        C782   1.362   1_655  A
N778        C779   1.369       .  A
N778       C3760   1.476       .  S
C779        C780   1.419       .  A
C779       C1993   1.490       .  S
C780        C781   1.427   1_655  A
C780       C2976   1.547       .  S
C781        C782   1.415       .  A
C781       C3326   1.517       .  S
C782       C2038   1.512       .  S
N783        C787   1.363       .  A
N783        C784   1.364   1_565  A
N783       C4205   1.466       .  S
C784        C785   1.431       .  A
C784       C2024   1.531       .  S
C785        C786   1.490   1_545  A
C785       C3774   1.581       .  S
C786        C787   1.430       .  A
C786       C1979   1.573       .  S
C787       C2150   1.530       .  S
N788        C792   1.363   1_554  A
N788        C789   1.345       .  A
N788       C3309   1.459       .  S
C789        C790   1.423       .  A
C789       C2010   1.546       .  S
C790        C791   1.454   1_554  A
C790       C4222   1.482       .  S
C791        C792   1.429       .  A
C791       C2528   1.608       .  S
C792       C2276   1.470       .  S
N793        C797   1.346       .  A
N793        C794   1.357   1_565  A
N793       C4292   1.462       .  S
C794        C795   1.413       .  A
C794       C1968   1.482       .  S
C795        C796   1.397   1_545  A
C795       C3785   1.500       .  S
C796        C797   1.390       .  A
C796       C1951   1.507       .  S
C797       C2080   1.467       .  S
O798       Ni804   1.942       .  S
O798        C819   1.274       .  A
O799       Ni822   1.913       .  S
O799        C808   1.271       .  A
O800       Ni804   1.906       .  S
O800       Ni822   1.902       .  S
O800       Ni816   1.869       .  S
O800        H823   0.967       .  S
C801       C1965   1.469       .  S
C801        O818   1.255       .  A
C801        O810   1.259       .  A
O802       Ni821   1.906       .  S
O802        C808   1.268       .  A
O803       Ni821   1.883       .  S
O803        C805   1.271       .  A
Ni804       O807   1.927       .  S
Ni804       O809   1.913       .  S
C805       C1940   1.510       .  S
C805        O815   1.289       .  A
O806       Ni822   1.880       .  S
O806        C812   1.267       .  A
O807        C812   1.275       .  A
C808       C1996   1.484       .  S
O809        C811   1.270       .  A
O810       Ni821   1.901       .  S
C811       C3956   1.483       .  S
C811        O817   1.275       .  A
C812       C3242   1.451       .  S
H813        O814   0.966       .  S
O814       Ni822   1.918       .  S
O814       Ni816   1.928       .  S
O814       Ni821   1.914       .  S
O815       Ni816   1.983       .  S
Ni816       O820   1.895       .  S
Ni816       O818   1.895       .  S
O817       Ni822   1.946       .  S
C819       C4586   1.479       .  S
C819        O820   1.266       .  A
N824        C828   1.380       .  A
N824        C825   1.366       .  A
N824       C2945   1.469       .  S
C825        C826   1.404       .  A
C825       C2346   1.526   1_554  S
C826        C827   1.415       .  A
C826       C2486   1.502   1_554  S
C827        C828   1.419       .  A
C827       C4303   1.540       .  S
C828       C1937   1.517       .  S
N829        C833   1.352       .  A
N829        C830   1.359       .  A
N829       C1881   1.436       .  S
C830        C831   1.383       .  A
C830       C2119   1.467       .  S
C831        C832   1.400       .  A
C831       C1912   1.543       .  S
C832        C833   1.402       .  A
C832       C1923   1.444       .  S
C833       C1895   1.530       .  S
N834        C838   1.366       .  A
N834        C835   1.364       .  A
N834       C1825   1.469       .  S
C835        C836   1.413       .  A
C835       C1839   1.517       .  S
C836        C837   1.405       .  A
C836       C1867   1.499       .  S
C837        C838   1.402       .  A
C837       C1853   1.529       .  S
C838       C2192   1.481       .  S
N839        C843   1.337       .  A
N839        C840   1.355       .  A
N839       C1769   1.440       .  S
C840        C841   1.385       .  A
C840       C2360   1.452       .  S
C841        C842   1.389       .  A
C841       C1797   1.517       .  S
C842        C843   1.389       .  A
C842       C1811   1.444       .  S
C843       C1783   1.500       .  S
N844        C848   1.373       .  A
N844        C845   1.384       .  A
N844       C1713   1.471       .  S
C845        C846   1.414       .  A
C845       C2049   1.496       .  S
C846        C847   1.427       .  A
C846       C1741   1.590       .  S
C847        C848   1.434       .  A
C847       C1755   1.475       .  S
C848       C1727   1.579       .  S
C849        C851   1.543       .  S
C849        C853   1.519       .  S
C849        C852   1.574       .  S
C849       C1730   1.633       .  S
C850        C854   1.556       .  S
C850        C856   1.544       .  S
C850        C855   1.573       .  S
C850       C1699   1.650       .  S
C851        C859   1.362       .  A
C851        C854   1.435       .  A
C852        C863   1.390       .  A
C852        C855   1.411       .  A
C853        C867   1.363       .  A
C853        C856   1.409       .  A
C854        C857   1.381       .  A
C855        C861   1.392       .  A
C856        C864   1.364       .  A
C857        N858   1.356       .  A
C857        H870   1.083       .  S
N858        C859   1.349       .  A
N858       C1786   1.427       .  S
C859        H860   1.083       .  S
C861        N862   1.375       .  A
C861        H871   1.077       .  S
N862        C863   1.374       .  A
N862       C1671   1.493       .  S
C863        H869   1.075       .  S
C864        N865   1.359       .  A
C864        H866   1.083       .  S
N865        C867   1.344       .  A
N865       C1685   1.411       .  S
C867        H868   1.083       .  S
C872        C874   1.536   1_455  S
C872        C876   1.576       .  S
C872        C875   1.582       .  S
C872       C1982   1.648       .  S
C873        C877   1.550       .  S
C873        C879   1.567   1_655  S
C873        C878   1.586       .  S
C873       C1744   1.643       .  S
C874        C882   1.371       .  A
C874        C877   1.401       .  A
C875        C886   1.400       .  A
C875        C878   1.427   1_455  A
C876        C890   1.398       .  A
C876        C879   1.423       .  A
C877        C880   1.389       .  A
C878        C884   1.402       .  A
C879        C887   1.392       .  A
C880        N881   1.361       .  A
C880        H893   1.083       .  S
N881        C882   1.353       .  A
N881       C1954   1.436       .  S
C882        H883   1.083       .  S
C884        N885   1.366       .  A
C884        H894   1.076       .  S
N885        C886   1.366   1_655  A
N885       C2094   1.476       .  S
C886        H892   1.079       .  S
C887        N888   1.364       .  A
C887        H889   1.082       .  S
N888        C890   1.365       .  A
N888       C1909   1.466       .  S
C890        H891   1.081       .  S
C895        C897   1.553   1_655  S
C895        C899   1.561       .  S
C895        C898   1.541   1_655  S
C895       C2304   1.585       .  S
C896        C900   1.567       .  S
C896        C902   1.552       .  S
C896        C901   1.523       .  S
C896       C1856   1.586       .  S
C897        C905   1.379       .  A
C897        C900   1.412       .  A
C898        C909   1.383       .  A
C898        C901   1.393       .  A
C899        C913   1.385       .  A
C899        C902   1.409   1_655  A
C900        C903   1.392       .  A
C901        C907   1.370       .  A
C902        C910   1.382   1_455  A
C903        N904   1.358       .  A
C903        H916   1.079       .  S
N904        C905   1.356       .  A
N904       C2234   1.447       .  S
C905        H906   1.081       .  S
C907        N908   1.347       .  A
C907        H917   1.083       .  S
N908        C909   1.363       .  A
N908       C2175   1.435       .  S
C909        H915   1.082   1_455  S
C910        N911   1.356       .  A
C910        H912   1.081   1_655  S
N911        C913   1.357       .  A
N911       C1800   1.447       .  S
C913        H914   1.075       .  S
C918        C920   1.521       .  S
C918        C922   1.530       .  S
C918        C921   1.548       .  S
C918       C1898   1.561       .  S
C919        C923   1.550       .  S
C919        C925   1.554       .  S
C919        C924   1.569       .  S
C919       C1643   1.573       .  S
C920        C928   1.383       .  A
C920        C923   1.392       .  A
C921        C932   1.371       .  A
C921        C924   1.406       .  A
C922        C936   1.368       .  A
C922        C925   1.395       .  A
C923        C926   1.380       .  A
C924        C930   1.390       .  A
C925        C933   1.394       .  A
C926        N927   1.352       .  A
C926        H939   1.077       .  S
N927        C928   1.355       .  A
N927       C1657   1.452       .  S
C928        H929   1.082       .  S
C930        N931   1.372       .  A
C930        H940   1.079       .  S
N931        C932   1.358       .  A
N931       C1629   1.469       .  S
C932        H938   1.067       .  S
C933        N934   1.371       .  A
C933        H935   1.071       .  S
N934        C936   1.357       .  A
N934       C1842   1.476       .  S
C936        H937   1.080       .  S
N941        C945   1.381       .  A
N941        C942   1.382       .  A
N941       C4026   1.483       .  S
C942        C943   1.427       .  A
C942       C1601   1.552       .  S
C943        C944   1.409       .  A
C943       C2444   1.502       .  S
C944        C945   1.393       .  A
C944       C4488   1.532       .  S
C945       C1615   1.498       .  S
N946        C950   1.345       .  A
N946        C947   1.345       .  A
N946       C3575   1.444       .  S
C947        C948   1.388       .  A
C947       C1573   1.462       .  S
C948        C949   1.390       .  A
C948       C1660   1.495       .  S
C949        C950   1.388       .  A
C949       C4040   1.481       .  S
C950       C1590   1.473       .  S
N951        C955   1.350       .  A
N951        C952   1.353       .  A
N951       C4474   1.461       .  S
C952        C953   1.403       .  A
C952       C1545   1.469       .  S
C953        C954   1.393       .  A
C953       C2892   1.504       .  S
C954        C955   1.382       .  A
C954       C3592   1.489       .  S
C955       C1559   1.460       .  S
O956       Ni962   1.911       .  S
O956        C977   1.274       .  A
O957       Ni980   1.887       .  S
O957        C966   1.266       .  A
O958       Ni962   1.880       .  S
O958       Ni980   1.892       .  S
O958       Ni974   1.897       .  S
O958        H981   0.962       .  S
C959       C4527   1.460       .  S
C959        O976   1.280       .  A
C959        O968   1.274       .  A
O960       Ni979   1.898       .  S
O960        C966   1.259       .  A
O961       Ni979   1.904       .  S
O961        C963   1.261       .  A
Ni962       O965   1.914       .  S
Ni962       O967   1.890       .  S
C963       C3634   1.500       .  S
C963        O973   1.268       .  A
O964       Ni980   1.903       .  S
O964        C970   1.264       .  A
O965        C970   1.265       .  A
C966       C1562   1.448       .  S
O967        C969   1.269       .  A
O968       Ni979   1.890       .  S
C969       C1618   1.472       .  S
C969        O975   1.282       .  A
C970       C1587   1.456       .  S
H971        O972   0.964       .  S
O972       Ni980   1.896       .  S
O972       Ni974   1.881       .  S
O972       Ni979   1.880       .  S
O973       Ni974   1.929       .  S
Ni974       O978   1.887       .  S
Ni974       O976   1.934       .  S
O975       Ni980   1.968       .  S
C977       C4082   1.454       .  S
C977        O978   1.271       .  A
O982       Ni988   1.952       .  S
O982       C1003   1.280       .  A
O983      Ni1006   1.891       .  S
O983        C992   1.269       .  A
O984       Ni988   1.888       .  S
O984      Ni1006   1.880       .  S
O984      Ni1000   1.877       .  S
O984       H1007   0.967       .  S
C985       C1548   1.454       .  S
C985       O1002   1.278       .  A
C985        O994   1.276       .  A
O986      Ni1005   1.885       .  S
O986        C992   1.254       .  A
O987      Ni1005   1.900       .  S
O987        C989   1.259       .  A
Ni988       O991   1.936       .  S
Ni988       O993   1.922       .  S
C989       C1517   1.502       .  S
C989        O999   1.274       .  A
O990      Ni1006   1.884       .  S
O990        C996   1.273       .  A
O991        C996   1.280       .  A
C992       C1531   1.433       .  S
O993        C995   1.272       .  A
O994      Ni1005   1.883       .  S
C995       C3253   1.503       .  S
C995       O1001   1.279       .  A
C996       C3970   1.456       .  S
H997        O998   0.966       .  S
O998      Ni1006   1.903       .  S
O998      Ni1000   1.860       .  S
O998      Ni1005   1.876       .  S
O999      Ni1000   1.958       .  S
Ni1000     O1004   1.837       .  S
Ni1000     O1002   1.924       .  S
O1001     Ni1006   1.964       .  S
C1003      C4600   1.452       .  S
C1003      O1004   1.260       .  A
O1008     Ni1014   1.913       .  S
O1008      C1029   1.266       .  A
O1009     Ni1032   1.890       .  S
O1009      C1018   1.266       .  A
O1010     Ni1014   1.870       .  S
O1010     Ni1032   1.868       .  S
O1010     Ni1026   1.859       .  S
O1010      H1033   0.937       .  S
C1011      C1884   1.456       .  S
C1011      O1028   1.252       .  A
C1011      O1020   1.263       .  A
O1012     Ni1031   1.929       .  S
O1012      C1018   1.275       .  A
O1013     Ni1031   1.878       .  S
O1013      C1015   1.269       .  A
Ni1014     O1017   1.890       .  S
Ni1014     O1019   1.887       .  S
C1015      C4418   1.481       .  S
C1015      O1025   1.284       .  A
O1016     Ni1032   1.917       .  S
O1016      C1022   1.278       .  A
O1017      C1022   1.276       .  A
C1018      C3701   1.484       .  S
O1019      C1021   1.265       .  A
O1020     Ni1031   1.916       .  S
C1021      C1576   1.470       .  S
C1021      O1027   1.260       .  A
C1022      C1503   1.463       .  S
H1023      O1024   0.963       .  S
O1024     Ni1032   1.927       .  S
O1024     Ni1026   1.928       .  S
O1024     Ni1031   1.910       .  S
O1025     Ni1026   1.948       .  S
Ni1026     O1030   1.905       .  S
Ni1026     O1028   1.882       .  S
O1027     Ni1032   1.879       .  S
C1029      C1489   1.499       .  S
C1029      O1030   1.264       .  A
O1034     Ni1040   1.930       .  S
O1034      C1055   1.275       .  A
O1035     Ni1058   1.901       .  S
O1035      C1044   1.271       .  A
O1036     Ni1040   1.875       .  S
O1036     Ni1058   1.875       .  S
O1036     Ni1052   1.895       .  S
O1036      H1059   0.966       .  S
C1037      C2808   1.463       .  S
C1037      O1054   1.276       .  A
C1037      O1046   1.278       .  A
O1038     Ni1057   1.899       .  S
O1038      C1044   1.265       .  A
O1039     Ni1057   1.912       .  S
O1039      C1041   1.265       .  A
Ni1040     O1043   1.931       .  S
Ni1040     O1045   1.914       .  S
C1041      C3519   1.509       .  S
C1041      O1051   1.272       .  A
O1042     Ni1058   1.910       .  S
O1042      C1048   1.279       .  A
O1043      C1048   1.283       .  A
C1044      C4152   1.450       .  S
O1045      C1047   1.269       .  A
O1046     Ni1057   1.901       .  S
C1047      C1604   1.515       .  S
C1047      O1053   1.284       .  A
C1048      C1461   1.508       .  S
H1049      O1050   0.967       .  S
O1050     Ni1058   1.908       .  S
O1050     Ni1052   1.873       .  S
O1050     Ni1057   1.887       .  S
O1051     Ni1052   1.946       .  S
Ni1052     O1056   1.869       .  S
Ni1052     O1054   1.914       .  S
O1053     Ni1058   1.975       .  S
C1055      C1475   1.475       .  S
C1055      O1056   1.263       .  A
N1060      C1064   1.360       .  A
N1060      C1061   1.372       .  A
N1060      C4250   1.479       .  S
C1061      C1062   1.410       .  A
C1061      C1506   1.469       .  S
C1062      C1063   1.425       .  A
C1062      C3606   1.560       .  S
C1063      C1064   1.430       .  A
C1063      C2875   1.503       .  S
C1064      C1447   1.535       .  S
N1065      C1069   1.362       .  A
N1065      C1066   1.363       .  A
N1065      C1674   1.469       .  S
C1066      C1067   1.427       .  A
C1066      C1433   1.519       .  S
C1067      C1068   1.434       .  A
C1067      C2570   1.526       .  S
C1068      C1069   1.406       .  A
C1068      C4278   1.545       .  S
C1069      C1419   1.494       .  S
N1070      C1074   1.376       .  A
N1070      C1071   1.352       .  A
N1070      C2864   1.480       .  S
C1071      C1072   1.373       .  A
C1071      C1405   1.485       .  S
C1072      C1073   1.374       .  A
C1072      C1688   1.456       .  S
C1073      C1074   1.413       .  A
C1073      C3816   1.520       .  S
C1074      C1534   1.506       .  S
O1075     Ni1081   1.904       .  S
O1075      C1096   1.263       .  A
O1076     Ni1099   1.906       .  S
O1076      C1085   1.280       .  A
O1077     Ni1081   1.889       .  S
O1077     Ni1099   1.887       .  S
O1077     Ni1093   1.928       .  S
O1077      H1100   0.966       .  S
C1078      C1408   1.472       .  S
C1078      O1095   1.283       .  A
C1078      O1087   1.276       .  A
O1079     Ni1098   1.905       .  S
O1079      C1085   1.271       .  A
O1080     Ni1098   1.923       .  S
O1080      C1082   1.268       .  A
Ni1081     O1084   1.933       .  S
Ni1081     O1086   1.886       .  S
C1082      C1450   1.510       .  S
C1082      O1092   1.279       .  A
O1083     Ni1099   1.929       .  S
O1083      C1089   1.279       .  A
O1084      C1089   1.280       .  A
C1085      C3172   1.490       .  S
O1086      C1088   1.261       .  A
O1087     Ni1098   1.897       .  S
C1088      C1716   1.520       .  S
C1088      O1094   1.292       .  A
C1089      C4348   1.486       .  S
H1090      O1091   0.965       .  S
O1091     Ni1099   1.904       .  S
O1091     Ni1093   1.879       .  S
O1091     Ni1098   1.881       .  S
O1092     Ni1093   1.961       .  S
Ni1093     O1097   1.915       .  S
Ni1093     O1095   1.922       .  S
O1094     Ni1099   2.000       .  S
C1096      C1422   1.466       .  S
C1096      O1097   1.266       .  A
N1101      C1105   1.355       .  A
N1101      C1102   1.361       .  A
N1101      C3802   1.474       .  S
C1102      C1103   1.405       .  A
C1102      C1391   1.466       .  S
C1103      C1104   1.414       .  A
C1103      C2430   1.539       .  S
C1104      C1105   1.414       .  A
C1104      C4502   1.496       .  S
C1105      C1520   1.504       .  S
N1106      C1110   1.365       .  A
N1106      C1107   1.381       .  A
N1106      C2990   1.511       .  S
C1107      C1108   1.434       .  A
C1107      C1377   1.477       .  S
C1108      C1109   1.459       .  A
C1108      C1702   1.605       .  S
C1109      C1110   1.436       .  A
C1109      C3830   1.548       .  S
C1110      C1363   1.510       .  S
N1111      C1115   1.349       .  A
N1111      C1112   1.333       .  A
N1111      C2416   1.441       .  S
C1112      C1113   1.382       .  A
C1112      C1478   1.481       .  S
C1113      C1114   1.411       .  A
C1113      C3368   1.473       .  S
C1114      C1115   1.416       .  A
C1114      C3004   1.511       .  S
C1115      C1349   1.488       .  S
O1116     Ni1122   1.874       .  S
O1116      C1137   1.257       .  A
O1117     Ni1140   1.880       .  S
O1117      C1126   1.264       .  A
O1118     Ni1122   1.870       .  S
O1118     Ni1140   1.871       .  S
O1118     Ni1134   1.898       .  S
O1118      H1141   0.967       .  S
C1119      C1394   1.477       .  S
C1119      O1136   1.271       .  A
C1119      O1128   1.280       .  A
O1120     Ni1139   1.912       .  S
O1120      C1126   1.270       .  A
O1121     Ni1139   1.888       .  S
O1121      C1123   1.263       .  A
Ni1122     O1125   1.885       .  S
Ni1122     O1127   1.905       .  S
C1123      C1366   1.486       .  S
C1123      O1133   1.279       .  A
O1124     Ni1140   1.913       .  S
O1124      C1130   1.281       .  A
O1125      C1130   1.278       .  A
C1126      C3900   1.464       .  S
O1127      C1129   1.262       .  A
O1128     Ni1139   1.913       .  S
C1129      C2724   1.498       .  S
C1129      O1135   1.266       .  A
C1130      C3032   1.472       .  S
H1131      O1132   0.964       .  S
O1132     Ni1140   1.899       .  S
O1132     Ni1134   1.888       .  S
O1132     Ni1139   1.870       .  S
O1133     Ni1134   1.954       .  S
Ni1134     O1138   1.931       .  S
Ni1134     O1136   1.878       .  S
O1135     Ni1140   1.940       .  S
C1137      C1352   1.473       .  S
C1137      O1138   1.267       .  A
N1142      C1146   1.369       .  A
N1142      C1143   1.362       .  A
N1142      C3354   1.478       .  S
C1143      C1144   1.447       .  A
C1143      C1335   1.536       .  S
C1144      C1145   1.458       .  A
C1144      C1646   1.544       .  S
C1145      C1146   1.420       .  A
C1145      C4051   1.582       .  S
C1146      C1464   1.496       .  S
N1147      C1151   1.358       .  A
N1147      C1148   1.358       .  A
N1147      C2542   1.477       .  S
C1148      C1149   1.412       .  A
C1148      C1321   1.487       .  S
C1149      C1150   1.492       .  A
C1149      C3018   1.590       .  S
C1150      C1151   1.448       .  A
C1150      C3382   1.576       .  S
C1151      C1307   1.532       .  S
N1152      C1156   1.351       .  A
N1152      C1153   1.356       .  A
N1152      C1632   1.465       .  S
C1153      C1154   1.411       .  A
C1153      C1492   1.488       .  S
C1154      C1155   1.397       .  A
C1154      C4264   1.496       .  S
C1155      C1156   1.386       .  A
C1155      C2556   1.505       .  S
C1156      C1293   1.454       .  S
O1157     Ni1163   1.923       .  S
O1157      C1178   1.272       .  A
O1158     Ni1181   1.869       .  S
O1158      C1167   1.262       .  A
O1159     Ni1163   1.903       .  S
O1159     Ni1181   1.885       .  S
O1159     Ni1175   1.944       .  S
O1159      H1182   0.966       .  S
C1160      C1828   1.527       .  S
C1160      O1177   1.293       .  A
C1160      O1169   1.278       .  A
O1161     Ni1180   1.899       .  S
O1161      C1167   1.262       .  A
O1162     Ni1180   1.900       .  S
O1162      C1164   1.262       .  A
Ni1163     O1166   1.949       .  S
Ni1163     O1168   1.921       .  S
C1164      C2584   1.518       .  S
C1164      O1174   1.281       .  A
O1165     Ni1181   1.924       .  S
O1165      C1171   1.275       .  A
O1166      C1171   1.282       .  A
C1167      C1296   1.443       .  S
O1168      C1170   1.272       .  A
O1169     Ni1180   1.910       .  S
C1170      C1338   1.535       .  S
C1170      O1176   1.278       .  A
C1171      C1310   1.502       .  S
H1172      O1173   0.966       .  S
O1173     Ni1181   1.920       .  S
O1173     Ni1175   1.864       .  S
O1173     Ni1180   1.881       .  S
O1174     Ni1175   1.979       .  S
Ni1175     O1179   1.887       .  S
Ni1175     O1177   1.967       .  S
O1176     Ni1181   1.966       .  S
C1178      C3452   1.457       .  S
C1178      O1179   1.265       .  A
O1183     Ni1189   1.917       .  S
O1183      C1204   1.268       .  A
O1184     Ni1207   1.895       .  S
O1184      C1193   1.266       .  A
O1185     Ni1189   1.891       .  S
O1185     Ni1207   1.886       .  S
O1185     Ni1201   1.904       .  S
O1185      H1208   0.967       .  S
C1186      C2651   1.455       .  S
C1186      O1203   1.276       .  A
C1186      O1195   1.280       .  A
O1187     Ni1206   1.901       .  S
O1187      C1193   1.264       .  A
O1188     Ni1206   1.898       .  S
O1188      C1190   1.264       .  A
Ni1189     O1192   1.924       .  S
Ni1189     O1194   1.912       .  S
C1190      C3102   1.507       .  S
C1190      O1200   1.279       .  A
O1191     Ni1207   1.901       .  S
O1191      C1197   1.277       .  A
O1192      C1197   1.281       .  A
C1193      C1772   1.448       .  S
O1194      C1196   1.265       .  A
O1195     Ni1206   1.898       .  S
C1196      C1436   1.530       .  S
C1196      O1202   1.274       .  A
C1197      C1380   1.489       .  S
H1198      O1199   0.966       .  S
O1199     Ni1207   1.902       .  S
O1199     Ni1201   1.883       .  S
O1199     Ni1206   1.873       .  S
O1200     Ni1201   1.956       .  S
Ni1201     O1205   1.896       .  S
Ni1201     O1203   1.915       .  S
O1202     Ni1207   1.950       .  S
C1204      C1324   1.490       .  S
C1204      O1205   1.265       .  A
O1209     Ni1217   1.890       .  S
O1209      C1219   1.277       .  A
O1210     Ni1217   1.893   1_655  S
O1210      C1220   1.275       .  A
O1211     Ni1217   1.895       .  S
O1211      C1221   1.279       .  A
O1212     Ni1217   1.904   1_655  S
O1212      C1222   1.276       .  A
O1213     Ni1218   1.908   1_655  S
O1213      C1222   1.281       .  A
O1214     Ni1218   1.920       .  S
O1214      C1221   1.280       .  A
O1215     Ni1218   1.892   1_655  S
O1215      C1220   1.277       .  A
O1216     Ni1218   1.894       .  S
O1216      C1219   1.277       .  A
Ni1217    Ni1218   2.394       .  S
C1219      C4194   1.485       .  S
C1220      C4012   1.444       .  S
C1221      C4124   1.470       .  S
C1222      C3942   1.465       .  S
O1223     Ni1231   1.872   1_655  S
O1223      C1233   1.273       .  A
O1224     Ni1231   1.874       .  S
O1224      C1234   1.272       .  A
O1225     Ni1231   1.897   1_655  S
O1225      C1235   1.278       .  A
O1226     Ni1231   1.903       .  S
O1226      C1236   1.278       .  A
O1227     Ni1232   1.925       .  S
O1227      C1236   1.284       .  A
O1228     Ni1232   1.919   1_655  S
O1228      C1235   1.282       .  A
O1229     Ni1232   1.876       .  S
O1229      C1234   1.273       .  A
O1230     Ni1232   1.878   1_655  S
O1230      C1233   1.271       .  A
Ni1231    Ni1232   2.395       .  S
C1233      C1814   1.421       .  S
C1234      C1926   1.425       .  S
C1235      C1758   1.476       .  S
C1236      C1870   1.511       .  S
O1237     Ni1245   1.900       .  S
O1237      C1247   1.280       .  A
O1238     Ni1245   1.902   1_556  S
O1238      C1248   1.275       .  A
O1239     Ni1245   1.906   1_556  S
O1239      C1249   1.278       .  A
O1240     Ni1245   1.897       .  S
O1240      C1250   1.278       .  A
O1241     Ni1246   1.913   1_554  S
O1241      C1250   1.281       .  A
O1242     Ni1246   1.917       .  S
O1242      C1249   1.282       .  A
O1243     Ni1246   1.876       .  S
O1243      C1248   1.276       .  A
O1244     Ni1246   1.881   1_554  S
O1244      C1247   1.272       .  A
Ni1245    Ni1246   2.395   1_554  S
C1247      C3225   1.447       .  S
C1248      C3085   1.443       .  S
C1249      C3158   1.473       .  S
C1250      C3298   1.486       .  S
O1251     Ni1259   1.903   1_565  S
O1251      C1261   1.278       .  A
O1252     Ni1259   1.905       .  S
O1252      C1262   1.281       .  A
O1253     Ni1259   1.900       .  S
O1253      C1263   1.277       .  A
O1254     Ni1259   1.910   1_565  S
O1254      C1264   1.278       .  A
O1255     Ni1260   1.853       .  S
O1255      C1264   1.270       .  A
O1256     Ni1260   1.855   1_545  S
O1256      C1263   1.269       .  A
O1257     Ni1260   1.914   1_545  S
O1257      C1262   1.280       .  A
O1258     Ni1260   1.916       .  S
O1258      C1261   1.283       .  A
Ni1259    Ni1260   2.396   1_545  S
C1261      C2640   1.497       .  S
C1262      C2777   1.475       .  S
C1263      C2850   1.428       .  S
C1264      C2710   1.436       .  S
O1265     Ni1273   1.918   1_556  S
O1265      C1275   1.282       .  A
O1266     Ni1273   1.916       .  S
O1266      C1276   1.283       .  A
O1267     Ni1273   1.903   1_556  S
O1267      C1277   1.277       .  A
O1268     Ni1273   1.902       .  S
O1268      C1278   1.277       .  A
O1269     Ni1274   1.922       .  S
O1269      C1278   1.283       .  A
O1270     Ni1274   1.927   1_556  S
O1270      C1277   1.284       .  A
O1271     Ni1274   1.892       .  S
O1271      C1276   1.273       .  A
O1272     Ni1274   1.877   1_556  S
O1272      C1275   1.273       .  A
Ni1273    Ni1274   2.394       .  S
C1275      C3494   1.471       .  S
C1276      C3673   1.458       .  S
C1277      C3564   1.476       .  S
C1278      C3746   1.469       .  S
O1279     Ni1287   1.887   1_545  S
O1279      C1289   1.273       .  A
O1280     Ni1287   1.892       .  S
O1280      C1290   1.276       .  A
O1281     Ni1287   1.942       .  S
O1281      C1291   1.288       .  A
O1282     Ni1287   1.935   1_545  S
O1282      C1292   1.286       .  A
O1283     Ni1288   1.878   1_545  S
O1283      C1292   1.273       .  A
O1284     Ni1288   1.890       .  S
O1284      C1291   1.275       .  A
O1285     Ni1288   1.914       .  S
O1285      C1290   1.280       .  A
O1286     Ni1288   1.924   1_545  S
O1286      C1289   1.283       .  A
Ni1287    Ni1288   2.389       .  S
C1289      C4639   1.459       .  S
C1290      C4460   1.463       .  S
C1291      C4390   1.511       .  S
C1292      C4572   1.475       .  S
C1293      C1294   1.412       .  A
C1293      C1298   1.405       .  A
C1294      C1295   1.394       .  A
C1294      C1299   1.450       .  S
C1295      C1296   1.405       .  A
C1295      C1302   1.455       .  S
C1296      C1297   1.411       .  A
C1297      C1298   1.390       .  A
C1297      C1300   1.454       .  S
C1298      C1301   1.451       .  S
C1299      N1306   1.157       .  T
C1300      N1305   1.157       .  T
C1301      N1303   1.157       .  T
C1302      N1304   1.158       .  T
C1307      C1308   1.425       .  A
C1307      C1312   1.425       .  A
C1308      C1309   1.424       .  A
C1308      C1313   1.449       .  S
C1309      C1310   1.410       .  A
C1309      C1316   1.448       .  S
C1310      C1311   1.407       .  A
C1311      C1312   1.414       .  A
C1311      C1314   1.450       .  S
C1312      C1315   1.446       .  S
C1313      N1320   1.157       .  T
C1314      N1319   1.156       .  T
C1315      N1317   1.157       .  T
C1316      N1318   1.156       .  T
C1321      C1322   1.407       .  A
C1321      C1326   1.411       .  A
C1322      C1323   1.403       .  A
C1322      C1327   1.449       .  S
C1323      C1324   1.420       .  A
C1323      C1330   1.454       .  S
C1324      C1325   1.419       .  A
C1325      C1326   1.409       .  A
C1325      C1328   1.452       .  S
C1326      C1329   1.449       .  S
C1327      N1334   1.157       .  T
C1328      N1333   1.157       .  T
C1329      N1331   1.157       .  T
C1330      N1332   1.158       .  T
C1335      C1336   1.420       .  A
C1335      C1340   1.418       .  A
C1336      C1337   1.421       .  A
C1336      C1341   1.448       .  S
C1337      C1338   1.420       .  A
C1337      C1344   1.454       .  S
C1338      C1339   1.426       .  A
C1339      C1340   1.433       .  A
C1339      C1342   1.449       .  S
C1340      C1343   1.449       .  S
C1341      N1348   1.157       .  T
C1342      N1347   1.158       .  T
C1343      N1345   1.157       .  T
C1344      N1346   1.158       .  T
C1349      C1350   1.406       .  A
C1349      C1354   1.418       .  A
C1350      C1351   1.388       .  A
C1350      C1355   1.445       .  S
C1351      C1352   1.406       .  A
C1351      C1358   1.454       .  S
C1352      C1353   1.415       .  A
C1353      C1354   1.418       .  A
C1353      C1356   1.445       .  S
C1354      C1357   1.449       .  S
C1355      N1362   1.157       .  T
C1356      N1361   1.156       .  T
C1357      N1359   1.157       .  T
C1358      N1360   1.156       .  T
C1363      C1364   1.418       .  A
C1363      C1368   1.420       .  A
C1364      C1365   1.416       .  A
C1364      C1369   1.447       .  S
C1365      C1366   1.409       .  A
C1365      C1372   1.452       .  S
C1366      C1367   1.409       .  A
C1367      C1368   1.416       .  A
C1367      C1370   1.453       .  S
C1368      C1371   1.447       .  S
C1369      N1376   1.157       .  T
C1370      N1375   1.157       .  T
C1371      N1373   1.157       .  T
C1372      N1374   1.157       .  T
C1377      C1378   1.412       .  A
C1377      C1382   1.412       .  A
C1378      C1379   1.406       .  A
C1378      C1383   1.448       .  S
C1379      C1380   1.411       .  A
C1379      C1386   1.448       .  S
C1380      C1381   1.411       .  A
C1381      C1382   1.403       .  A
C1381      C1384   1.453       .  S
C1382      C1385   1.448       .  S
C1383      N1390   1.157       .  T
C1384      N1389   1.157       .  T
C1385      N1387   1.157       .  T
C1386      N1388   1.156       .  T
C1391      C1392   1.405       .  A
C1391      C1396   1.409       .  A
C1392      C1393   1.396       .  A
C1392      C1397   1.451       .  S
C1393      C1394   1.419       .  A
C1393      C1400   1.455       .  S
C1394      C1395   1.421       .  A
C1395      C1396   1.401       .  A
C1395      C1398   1.455       .  S
C1396      C1399   1.453       .  S
C1397      N1404   1.157       .  T
C1398      N1403   1.158       .  T
C1399      N1401   1.157       .  T
C1400      N1402   1.158       .  T
C1405      C1406   1.407       .  A
C1405      C1410   1.415       .  A
C1406      C1407   1.403       .  A
C1406      C1411   1.452       .  S
C1407      C1408   1.419       .  A
C1407      C1414   1.452       .  S
C1408      C1409   1.409       .  A
C1409      C1410   1.402       .  A
C1409      C1412   1.452       .  S
C1410      C1413   1.450       .  S
C1411      N1418   1.157       .  T
C1412      N1417   1.157       .  T
C1413      N1415   1.157       .  T
C1414      N1416   1.158       .  T
C1419      C1420   1.415       .  A
C1419      C1424   1.420       .  A
C1420      C1421   1.397       .  A
C1420      C1425   1.448       .  S
C1421      C1422   1.405       .  A
C1421      C1428   1.454       .  S
C1422      C1423   1.404       .  A
C1423      C1424   1.410       .  A
C1423      C1426   1.449       .  S
C1424      C1427   1.446       .  S
C1425      N1432   1.157       .  T
C1426      N1431   1.157       .  T
C1427      N1429   1.157       .  T
C1428      N1430   1.157       .  T
C1433      C1434   1.416       .  A
C1433      C1438   1.416       .  A
C1434      C1435   1.420       .  A
C1434      C1439   1.448       .  S
C1435      C1436   1.424       .  A
C1435      C1442   1.451       .  S
C1436      C1437   1.429       .  A
C1437      C1438   1.421       .  A
C1437      C1440   1.452       .  S
C1438      C1441   1.452       .  S
C1439      N1446   1.157       .  T
C1440      N1445   1.158       .  T
C1441      N1443   1.157       .  T
C1442      N1444   1.157       .  T
C1447      C1448   1.421       .  A
C1447      C1452   1.424       .  A
C1448      C1449   1.424       .  A
C1448      C1453   1.447       .  S
C1449      C1450   1.415       .  A
C1449      C1456   1.447       .  S
C1450      C1451   1.408       .  A
C1451      C1452   1.422       .  A
C1451      C1454   1.449       .  S
C1452      C1455   1.444       .  S
C1453      N1460   1.157       .  T
C1454      N1459   1.156       .  T
C1455      N1457   1.157       .  T
C1456      N1458   1.156       .  T
C1461      C1462   1.422       .  A
C1461      C1466   1.422       .  A
C1462      C1463   1.410       .  A
C1462      C1467   1.452       .  S
C1463      C1464   1.412       .  A
C1463      C1470   1.450       .  S
C1464      C1465   1.413       .  A
C1465      C1466   1.411       .  A
C1465      C1468   1.448       .  S
C1466      C1469   1.454       .  S
C1467      N1474   1.157       .  T
C1468      N1473   1.157       .  T
C1469      N1471   1.158       .  T
C1470      N1472   1.157       .  T
C1475      C1476   1.410       .  A
C1475      C1480   1.414       .  A
C1476      C1477   1.402       .  A
C1476      C1481   1.454       .  S
C1477      C1478   1.414       .  A
C1477      C1484   1.446       .  S
C1478      C1479   1.407       .  A
C1479      C1480   1.401       .  A
C1479      C1482   1.450       .  S
C1480      C1483   1.447       .  S
C1481      N1488   1.157       .  T
C1482      N1487   1.157       .  T
C1483      N1485   1.154       .  T
C1484      N1486   1.157       .  T
C1489      C1490   1.421       .  A
C1489      C1494   1.421       .  A
C1490      C1491   1.413       .  A
C1490      C1495   1.451       .  S
C1491      C1492   1.414       .  A
C1491      C1498   1.451       .  S
C1492      C1493   1.408       .  A
C1493      C1494   1.402       .  A
C1493      C1496   1.449       .  S
C1494      C1497   1.456       .  S
C1495      N1502   1.157       .  T
C1496      N1501   1.156       .  T
C1497      N1499   1.158       .  T
C1498      N1500   1.157       .  T
C1503      C1504   1.410       .  A
C1503      C1508   1.407       .  A
C1504      C1505   1.393       .  A
C1504      C1509   1.455       .  S
C1505      C1506   1.408       .  A
C1505      C1512   1.446       .  S
C1506      C1507   1.410       .  A
C1507      C1508   1.405       .  A
C1507      C1510   1.445       .  S
C1508      C1511   1.447       .  S
C1509      N1516   1.157       .  T
C1510      N1515   1.157       .  T
C1511      N1513   1.157       .  T
C1512      N1514   1.157       .  T
C1517      C1518   1.420       .  A
C1517      C1522   1.414       .  A
C1518      C1519   1.407       .  A
C1518      C1523   1.454       .  S
C1519      C1520   1.412       .  A
C1519      C1526   1.450       .  S
C1520      C1521   1.415       .  A
C1521      C1522   1.419       .  A
C1521      C1524   1.449       .  S
C1522      C1525   1.443       .  S
C1523      N1530   1.158       .  T
C1524      N1529   1.157       .  T
C1525      N1527   1.155       .  T
C1526      N1528   1.157       .  T
C1531      C1532   1.409       .  A
C1531      C1536   1.398       .  A
C1532      C1533   1.399       .  A
C1532      C1537   1.450       .  S
C1533      C1534   1.406       .  A
C1533      C1540   1.446       .  S
C1534      C1535   1.410       .  A
C1535      C1536   1.395       .  A
C1535      C1538   1.444       .  S
C1536      C1539   1.449       .  S
C1537      N1544   1.157       .  T
C1538      N1543   1.157       .  T
C1539      N1541   1.157       .  T
C1540      N1542   1.158       .  T
C1545      C1546   1.416       .  A
C1545      C1550   1.409       .  A
C1546      C1547   1.396       .  A
C1546      C1551   1.450       .  S
C1547      C1548   1.402       .  A
C1547      C1554   1.455       .  S
C1548      C1549   1.408       .  A
C1549      C1550   1.401       .  A
C1549      C1552   1.446       .  S
C1550      C1553   1.451       .  S
C1551      N1558   1.157       .  T
C1552      N1557   1.155       .  T
C1553      N1555   1.157       .  T
C1554      N1556   1.157       .  T
C1559      C1560   1.406       .  A
C1559      C1564   1.410       .  A
C1560      C1561   1.393       .  A
C1560      C1565   1.449       .  S
C1561      C1562   1.409       .  A
C1561      C1568   1.454       .  S
C1562      C1563   1.405       .  A
C1563      C1564   1.399       .  A
C1563      C1566   1.453       .  S
C1564      C1567   1.448       .  S
C1565      N1572   1.157       .  T
C1566      N1571   1.157       .  T
C1567      N1569   1.156       .  T
C1568      N1570   1.158       .  T
C1573      C1574   1.409       .  A
C1573      C1578   1.405       .  A
C1574      C1575   1.394       .  A
C1574      C1579   1.450       .  S
C1575      C1576   1.412       .  A
C1575      C1582   1.453       .  S
C1576      C1577   1.421       .  A
C1577      C1578   1.396       .  A
C1577      C1580   1.455       .  S
C1578      C1581   1.449       .  S
C1579      N1586   1.157       .  T
C1580      N1585   1.157       .  T
C1581      N1583   1.157       .  T
C1582      N1584   1.157       .  T
C1587      C1588   1.402       .  A
C1587      C1592   1.409       .  A
C1588      C1589   1.405       .  A
C1588      C1593   1.451       .  S
C1589      C1590   1.418       .  A
C1589      C1596   1.450       .  S
C1590      C1591   1.403       .  A
C1591      C1592   1.398       .  A
C1591      C1594   1.449       .  S
C1592      C1595   1.450       .  S
C1593      N1600   1.157       .  T
C1594      N1599   1.157       .  T
C1595      N1597   1.157       .  T
C1596      N1598   1.157       .  T
C1601      C1602   1.431       .  A
C1601      C1606   1.429       .  A
C1602      C1603   1.423       .  A
C1602      C1607   1.446       .  S
C1603      C1604   1.410       .  A
C1603      C1610   1.454       .  S
C1604      C1605   1.411       .  A
C1605      C1606   1.430       .  A
C1605      C1608   1.447       .  S
C1606      C1609   1.445       .  S
C1607      N1614   1.156       .  T
C1608      N1613   1.156       .  T
C1609      N1611   1.156       .  T
C1610      N1612   1.157       .  T
C1615      C1616   1.417       .  A
C1615      C1620   1.418       .  A
C1616      C1617   1.410       .  A
C1616      C1621   1.445       .  S
C1617      C1618   1.404       .  A
C1617      C1624   1.449       .  S
C1618      C1619   1.401       .  A
C1619      C1620   1.408       .  A
C1619      C1622   1.447       .  S
C1620      C1623   1.445       .  S
C1621      N1628   1.156       .  T
C1622      N1627   1.157       .  T
C1623      N1625   1.157       .  T
C1624      N1626   1.157       .  T
C1629      C1630   1.418       .  A
C1629      C1634   1.424       .  A
C1630      C1631   1.419       .  A
C1630      C1635   1.449       .  S
C1631      C1632   1.420       .  A
C1631      C1638   1.443       .  S
C1632      C1633   1.411       .  A
C1633      C1634   1.415       .  A
C1633      C1636   1.446       .  S
C1634      C1637   1.451       .  S
C1635      N1642   1.157       .  T
C1636      N1641   1.157       .  T
C1637      N1639   1.158       .  T
C1638      N1640   1.157       .  T
C1643      C1644   1.415       .  A
C1643      C1648   1.422       .  A
C1644      C1645   1.423       .  A
C1644      C1649   1.446       .  S
C1645      C1646   1.428       .  A
C1645      C1652   1.442       .  S
C1646      C1647   1.421       .  A
C1647      C1648   1.411       .  A
C1647      C1650   1.440       .  S
C1648      C1651   1.451       .  S
C1649      N1656   1.157       .  T
C1650      N1655   1.157       .  T
C1651      N1653   1.157       .  T
C1652      N1654   1.157       .  T
C1657      C1658   1.415       .  A
C1657      C1662   1.417       .  A
C1658      C1659   1.405       .  A
C1658      C1663   1.452       .  S
C1659      C1660   1.412       .  A
C1659      C1666   1.449       .  S
C1660      C1661   1.415       .  A
C1661      C1662   1.413       .  A
C1661      C1664   1.449       .  S
C1662      C1665   1.450       .  S
C1663      N1670   1.158       .  T
C1664      N1669   1.157       .  T
C1665      N1667   1.157       .  T
C1666      N1668   1.157       .  T
C1671      C1672   1.436       .  A
C1671      C1676   1.439       .  A
C1672      C1673   1.422       .  A
C1672      C1677   1.444       .  S
C1673      C1674   1.404       .  A
C1673      C1680   1.451       .  S
C1674      C1675   1.411       .  A
C1675      C1676   1.430       .  A
C1675      C1678   1.450       .  S
C1676      C1679   1.448       .  S
C1677      N1684   1.157       .  T
C1678      N1683   1.158       .  T
C1679      N1681   1.158       .  T
C1680      N1682   1.157       .  T
C1685      C1686   1.398       .  A
C1685      C1690   1.400       .  A
C1686      C1687   1.401       .  A
C1686      C1691   1.446       .  S
C1687      C1688   1.413       .  A
C1687      C1694   1.449       .  S
C1688      C1689   1.410       .  A
C1689      C1690   1.381       .  A
C1689      C1692   1.450       .  S
C1690      C1693   1.452       .  S
C1691      N1698   1.157       .  T
C1692      N1697   1.157       .  T
C1693      N1695   1.157       .  T
C1694      N1696   1.157       .  T
C1699      C1700   1.439       .  A
C1699      C1704   1.436       .  A
C1700      C1701   1.463       .  A
C1700      C1705   1.447       .  S
C1701      C1702   1.432       .  A
C1701      C1708   1.445       .  S
C1702      C1703   1.432       .  A
C1703      C1704   1.456       .  A
C1703      C1706   1.444       .  S
C1704      C1707   1.447       .  S
C1705      N1712   1.158       .  T
C1706      N1711   1.157       .  T
C1707      N1709   1.157       .  T
C1708      N1710   1.157       .  T
C1713      C1714   1.417       .  A
C1713      C1718   1.416       .  A
C1714      C1715   1.429       .  A
C1714      C1719   1.446       .  S
C1715      C1716   1.417       .  A
C1715      C1722   1.443       .  S
C1716      C1717   1.422       .  A
C1717      C1718   1.420       .  A
C1717      C1720   1.451       .  S
C1718      C1721   1.449       .  S
C1719      N1726   1.157       .  T
C1720      N1725   1.157       .  T
C1721      N1723   1.157       .  T
C1722      N1724   1.155       .  T
C1727      C1728   1.430       .  A
C1727      C1732   1.425       .  A
C1728      C1729   1.448       .  A
C1728      C1733   1.444       .  S
C1729      C1730   1.424       .  A
C1729      C1736   1.443       .  S
C1730      C1731   1.435       .  A
C1731      C1732   1.444       .  A
C1731      C1734   1.449       .  S
C1732      C1735   1.446       .  S
C1733      N1740   1.157       .  T
C1734      N1739   1.157       .  T
C1735      N1737   1.157       .  T
C1736      N1738   1.157       .  T
C1741      C1742   1.427       .  A
C1741      C1746   1.430       .  A
C1742      C1743   1.446       .  A
C1742      C1747   1.445       .  S
C1743      C1744   1.437       .  A
C1743      C1750   1.450       .  S
C1744      C1745   1.437       .  A
C1745      C1746   1.457       .  A
C1745      C1748   1.443       .  S
C1746      C1749   1.448       .  S
C1747      N1754   1.156       .  T
C1748      N1753   1.158       .  T
C1749      N1751   1.157       .  T
C1750      N1752   1.157       .  T
C1755      C1756   1.408       .  A
C1755      C1760   1.412       .  A
C1756      C1757   1.402       .  A
C1756      C1761   1.450       .  S
C1757      C1758   1.415       .  A
C1757      C1764   1.454       .  S
C1758      C1759   1.410       .  A
C1759      C1760   1.407       .  A
C1759      C1762   1.448       .  S
C1760      C1763   1.449       .  S
C1761      N1768   1.157       .  T
C1762      N1767   1.157       .  T
C1763      N1765   1.157       .  T
C1764      N1766   1.158       .  T
C1769      C1770   1.412       .  A
C1769      C1774   1.419       .  A
C1770      C1771   1.399       .  A
C1770      C1775   1.449       .  S
C1771      C1772   1.405       .  A
C1771      C1778   1.453       .  S
C1772      C1773   1.401       .  A
C1773      C1774   1.401       .  A
C1773      C1776   1.454       .  S
C1774      C1777   1.446       .  S
C1775      N1782   1.157       .  T
C1776      N1781   1.157       .  T
C1777      N1779   1.157       .  T
C1778      N1780   1.157       .  T
C1783      C1784   1.420       .  A
C1783      C1788   1.421       .  A
C1784      C1785   1.404       .  A
C1784      C1789   1.448       .  S
C1785      C1786   1.401       .  A
C1785      C1792   1.451       .  S
C1786      C1787   1.399       .  A
C1787      C1788   1.408       .  A
C1787      C1790   1.450       .  S
C1788      C1791   1.448       .  S
C1789      N1796   1.157       .  T
C1790      N1795   1.157       .  T
C1791      N1793   1.157       .  T
C1792      N1794   1.157       .  T
C1797      C1798   1.425       .  A
C1797      C1802   1.422       .  A
C1798      C1799   1.420       .  A
C1798      C1803   1.448       .  S
C1799      C1800   1.404       .  A
C1799      C1806   1.447       .  S
C1800      C1801   1.409       .  A
C1801      C1802   1.406       .  A
C1801      C1804   1.453       .  S
C1802      C1805   1.447       .  S
C1803      N1810   1.157       .  T
C1804      N1809   1.157       .  T
C1805      N1807   1.157       .  T
C1806      N1808   1.157       .  T
C1811      C1812   1.411       .  A
C1811      C1816   1.410       .  A
C1812      C1813   1.386       .  A
C1812      C1817   1.451       .  S
C1813      C1814   1.400       .  A
C1813      C1820   1.451       .  S
C1814      C1815   1.397       .  A
C1815      C1816   1.388       .  A
C1815      C1818   1.449       .  S
C1816      C1819   1.451       .  S
C1817      N1824   1.156       .  T
C1818      N1823   1.157       .  T
C1819      N1821   1.157       .  T
C1820      N1822   1.155   1_655  T
C1825      C1826   1.421       .  A
C1825      C1830   1.411       .  A
C1826      C1827   1.423       .  A
C1826      C1831   1.449       .  S
C1827      C1828   1.422       .  A
C1827      C1834   1.451       .  S
C1828      C1829   1.432       .  A
C1829      C1830   1.415       .  A
C1829      C1832   1.454       .  S
C1830      C1833   1.450       .  S
C1831      N1838   1.157       .  T
C1832      N1837   1.158       .  T
C1833      N1835   1.157       .  T
C1834      N1836   1.158       .  T
C1839      C1840   1.412       .  A
C1839      C1844   1.417       .  A
C1840      C1841   1.407       .  A
C1840      C1845   1.450       .  S
C1841      C1842   1.426       .  A
C1841      C1848   1.452       .  S
C1842      C1843   1.428       .  A
C1843      C1844   1.423       .  A
C1843      C1846   1.446       .  S
C1844      C1847   1.450       .  S
C1845      N1852   1.157       .  T
C1846      N1851   1.158       .  T
C1847      N1849   1.157       .  T
C1848      N1850   1.157       .  T
C1853      C1854   1.414       .  A
C1853      C1858   1.414       .  A
C1854      C1855   1.411       .  A
C1854      C1859   1.445       .  S
C1855      C1856   1.421       .  A
C1855      C1862   1.445       .  S
C1856      C1857   1.439       .  A
C1857      C1858   1.428       .  A
C1857      C1860   1.444       .  S
C1858      C1861   1.452       .  S
C1859      N1866   1.157       .  T
C1860      N1865   1.155       .  T
C1861      N1863   1.157       .  T
C1862      N1864   1.157       .  T
C1867      C1868   1.413       .  A
C1867      C1872   1.412       .  A
C1868      C1869   1.411       .  A
C1868      C1873   1.452       .  S
C1869      C1870   1.424       .  A
C1869      C1876   1.452       .  S
C1870      C1871   1.428       .  A
C1871      C1872   1.410       .  A
C1871      C1874   1.454       .  S
C1872      C1875   1.452       .  S
C1873      N1880   1.157       .  T
C1874      N1879   1.158       .  T
C1875      N1877   1.157       .  T
C1876      N1878   1.158       .  T
C1881      C1882   1.409       .  A
C1881      C1886   1.413       .  A
C1882      C1883   1.398       .  A
C1882      C1887   1.450       .  S
C1883      C1884   1.412       .  A
C1883      C1890   1.453       .  S
C1884      C1885   1.401       .  A
C1885      C1886   1.402       .  A
C1885      C1888   1.450       .  S
C1886      C1889   1.447       .  S
C1887      N1894   1.157       .  T
C1888      N1893   1.157       .  T
C1889      N1891   1.157       .  T
C1890      N1892   1.157       .  T
C1895      C1896   1.422       .  A
C1895      C1900   1.420       .  A
C1896      C1897   1.421       .  A
C1896      C1901   1.445       .  S
C1897      C1898   1.426       .  A
C1897      C1904   1.453       .  S
C1898      C1899   1.404       .  A
C1899      C1900   1.407       .  A
C1899      C1902   1.443       .  S
C1900      C1903   1.443       .  S
C1901      N1908   1.156       .  T
C1902      N1907   1.158       .  T
C1903      N1905   1.157       .  T
C1904      N1906   1.157       .  T
C1909      C1910   1.412       .  A
C1909      C1914   1.408       .  A
C1910      C1911   1.429       .  A
C1910      C1915   1.447       .  S
C1911      C1912   1.424       .  A
C1911      C1918   1.448       .  S
C1912      C1913   1.427       .  A
C1913      C1914   1.426       .  A
C1913      C1916   1.446       .  S
C1914      C1917   1.447       .  S
C1915      N1922   1.157       .  T
C1916      N1921   1.157       .  T
C1917      N1919   1.156       .  T
C1918      N1920   1.157       .  T
C1923      C1924   1.411       .  A
C1923      C1928   1.409       .  A
C1924      C1925   1.386       .  A
C1924      C1929   1.452       .  S
C1925      C1926   1.397       .  A
C1925      C1932   1.449       .  S
C1926      C1927   1.404       .  A
C1927      C1928   1.390       .  A
C1927      C1930   1.451       .  S
C1928      C1931   1.452       .  S
C1929      N1936   1.157       .  T
C1930      N1935   1.156       .  T
C1931      N1933   1.157       .  T
C1932      N1934   1.156       .  T
C1937      C1938   1.428       .  A
C1937      C1942   1.412       .  A
C1938      C1939   1.424       .  A
C1938      C1943   1.448       .  S
C1939      C1940   1.415       .  A
C1939      C1946   1.447       .  S
C1940      C1941   1.413       .  A
C1941      C1942   1.397       .  A
C1941      C1944   1.448       .  S
C1942      C1945   1.445       .  S
C1943      N1950   1.157       .  T
C1944      N1949   1.157       .  T
C1945      N1947   1.157       .  T
C1946      N1948   1.157       .  T
C1951      C1952   1.417       .  A
C1951      C1956   1.419       .  A
C1952      C1953   1.395       .  A
C1952      C1957   1.448       .  S
C1953      C1954   1.398       .  A
C1953      C1960   1.449       .  S
C1954      C1955   1.410       .  A
C1955      C1956   1.419       .  A
C1955      C1958   1.446       .  S
C1956      C1959   1.447       .  S
C1957      N1964   1.157       .  T
C1958      N1963   1.157       .  T
C1959      N1961   1.157       .  T
C1960      N1962   1.157       .  T
C1965      C1966   1.415       .  A
C1965      C1970   1.407       .  A
C1966      C1967   1.405       .  A
C1966      C1971   1.452       .  S
C1967      C1968   1.410       .  A
C1967      C1974   1.452       .  S
C1968      C1969   1.415       .  A
C1969      C1970   1.404       .  A
C1969      C1972   1.451       .  S
C1970      C1973   1.452       .  S
C1971      N1978   1.157       .  T
C1972      N1977   1.157       .  T
C1973      N1975   1.158       .  T
C1974      N1976   1.158       .  T
C1979      C1980   1.416       .  A
C1979      C1984   1.424       .  A
C1980      C1981   1.453       .  A
C1980      C1985   1.449       .  S
C1981      C1982   1.447       .  A
C1981      C1988   1.441   1_455  S
C1982      C1983   1.441       .  A
C1983      C1984   1.452       .  A
C1983      C1986   1.444       .  S
C1984      C1987   1.448       .  S
C1985      N1992   1.157       .  T
C1986      N1991   1.158       .  T
C1987      N1989   1.157       .  T
C1988      N1990   1.155       .  T
C1993      C1994   1.417       .  A
C1993      C1998   1.409       .  A
C1994      C1995   1.412       .  A
C1994      C1999   1.447       .  S
C1995      C1996   1.409       .  A
C1995      C2002   1.451       .  S
C1996      C1997   1.417       .  A
C1997      C1998   1.406       .  A
C1997      C2000   1.454       .  S
C1998      C2001   1.450       .  S
C1999      N2006   1.157       .  T
C2000      N2005   1.158       .  T
C2001      N2003   1.157       .  T
C2002      N2004   1.157       .  T
C2007      C2008   1.410       .  A
C2007      C2012   1.422       .  A
C2008      C2009   1.434       .  A
C2008      C2013   1.449       .  S
C2009      C2010   1.429       .  A
C2009      C2016   1.444       .  S
C2010      C2011   1.418       .  A
C2011      C2012   1.427       .  A
C2011      C2014   1.446       .  S
C2012      C2015   1.453       .  S
C2013      N2020   1.157       .  T
C2014      N2019   1.157       .  T
C2015      N2017   1.157       .  T
C2016      N2018   1.157       .  T
C2021      C2022   1.419       .  A
C2021      C2026   1.412       .  A
C2022      C2023   1.413       .  A
C2022      C2027   1.452       .  S
C2023      C2024   1.415       .  A
C2023      C2030   1.445       .  S
C2024      C2025   1.427       .  A
C2025      C2026   1.428       .  A
C2025      C2028   1.446       .  S
C2026      C2029   1.448       .  S
C2027      N2034   1.157       .  T
C2028      N2033   1.157       .  T
C2029      N2031   1.157       .  T
C2030      N2032   1.157       .  T
C2035      C2036   1.414       .  A
C2035      C2040   1.419       .  A
C2036      C2037   1.419       .  A
C2036      C2041   1.452       .  S
C2037      C2038   1.418       .  A
C2037      C2044   1.447       .  S
C2038      C2039   1.415       .  A
C2039      C2040   1.415       .  A
C2039      C2042   1.449       .  S
C2040      C2043   1.450       .  S
C2041      N2048   1.157       .  T
C2042      N2047   1.157       .  T
C2043      N2045   1.156       .  T
C2044      N2046   1.156       .  T
C2049      C2050   1.410       .  A
C2049      C2054   1.416       .  A
C2050      C2051   1.399       .  A
C2050      C2055   1.447       .  S
C2051      C2052   1.420       .  A
C2051      C2058   1.452       .  S
C2052      C2053   1.417       .  A
C2053      C2054   1.411       .  A
C2053      C2056   1.450       .  S
C2054      C2057   1.448       .  S
C2055      N2062   1.157       .  T
C2056      N2061   1.158       .  T
C2057      N2059   1.157       .  T
C2058      N2060   1.157       .  T
C2063      C2064   1.414       .  A
C2063      C2068   1.415       .  A
C2064      C2065   1.397       .  A
C2064      C2069   1.450       .  S
C2065      C2066   1.410       .  A
C2065      C2072   1.456       .  S
C2066      C2067   1.407       .  A
C2067      C2068   1.407       .  A
C2067      C2070   1.450       .  S
C2068      C2071   1.449       .  S
C2069      N2076   1.157       .  T
C2070      N2075   1.157       .  T
C2071      N2073   1.157       .  T
C2072      N2074   1.158       .  T
C2077      C2078   1.413       .  A
C2077      C2082   1.414       .  A
C2078      C2079   1.396       .  A
C2078      C2083   1.454       .  S
C2079      C2080   1.409       .  A
C2079      C2086   1.451       .  S
C2080      C2081   1.410       .  A
C2081      C2082   1.395       .  A
C2081      C2084   1.455       .  S
C2082      C2085   1.453       .  S
C2083      N2090   1.157       .  T
C2084      N2089   1.157       .  T
C2085      N2087   1.157       .  T
C2086      N2088   1.156       .  T
C2091      C2092   1.422   1_655  A
C2091      C2096   1.426       .  A
C2092      C2093   1.427       .  A
C2092      C2097   1.446       .  S
C2093      C2094   1.414   1_455  A
C2093      C2100   1.446       .  S
C2094      C2095   1.416       .  A
C2095      C2096   1.435       .  A
C2095      C2098   1.446       .  S
C2096      C2099   1.445       .  S
C2097      N2104   1.157       .  T
C2098      N2103   1.157       .  T
C2099      N2101   1.157       .  T
C2100      N2102   1.156       .  T
C2105      C2106   1.416       .  A
C2105      C2110   1.419       .  A
C2106      C2107   1.408       .  A
C2106      C2111   1.447       .  S
C2107      C2108   1.405       .  A
C2107      C2114   1.451       .  S
C2108      C2109   1.403       .  A
C2109      C2110   1.404       .  A
C2109      C2112   1.451       .  S
C2110      C2113   1.448       .  S
C2111      N2118   1.157       .  T
C2112      N2117   1.157       .  T
C2113      N2115   1.157       .  T
C2114      N2116   1.157       .  T
C2119      C2120   1.409       .  A
C2119      C2124   1.415       .  A
C2120      C2121   1.396       .  A
C2120      C2125   1.450       .  S
C2121      C2122   1.406       .  A
C2121      C2128   1.452       .  S
C2122      C2123   1.409       .  A
C2123      C2124   1.399       .  A
C2123      C2126   1.456       .  S
C2124      C2127   1.451       .  S
C2125      N2132   1.157       .  T
C2126      N2131   1.158       .  T
C2127      N2129   1.157       .  T
C2128      N2130   1.157       .  T
C2133      C2134   1.415       .  A
C2133      C2138   1.416       .  A
C2134      C2135   1.414       .  A
C2134      C2139   1.451       .  S
C2135      C2136   1.417       .  A
C2135      C2142   1.450       .  S
C2136      C2137   1.410       .  A
C2137      C2138   1.414       .  A
C2137      C2140   1.450       .  S
C2138      C2141   1.447       .  S
C2139      N2146   1.158       .  T
C2140      N2145   1.157       .  T
C2141      N2143   1.156       .  T
C2142      N2144   1.157       .  T
C2147      C2148   1.410       .  A
C2147      C2152   1.413       .  A
C2148      C2149   1.423       .  A
C2148      C2153   1.450       .  S
C2149      C2150   1.422       .  A
C2149      C2156   1.444       .  S
C2150      C2151   1.421       .  A
C2151      C2152   1.419       .  A
C2151      C2154   1.446       .  S
C2152      C2155   1.449       .  S
C2153      N2160   1.157       .  T
C2154      N2159   1.157       .  T
C2155      N2157   1.157       .  T
C2156      N2158   1.157       .  T
C2161      C2162   1.417       .  A
C2161      C2166   1.410       .  A
C2162      C2163   1.398       .  A
C2162      C2167   1.447       .  S
C2163      C2164   1.398       .  A
C2163      C2170   1.452       .  S
C2164      C2165   1.401       .  A
C2165      C2166   1.385       .  A
C2165      C2168   1.451       .  S
C2166      C2169   1.449       .  S
C2167      N2174   1.157       .  T
C2168      N2173   1.156       .  T
C2169      N2171   1.157       .  T
C2170      N2172   1.157       .  T
C2175      C2176   1.410       .  A
C2175      C2180   1.404       .  A
C2176      C2177   1.405       .  A
C2176      C2181   1.447       .  S
C2177      C2178   1.410       .  A
C2177      C2184   1.450       .  S
C2178      C2179   1.415       .  A
C2179      C2180   1.406       .  A
C2179      C2182   1.448       .  S
C2180      C2183   1.447       .  S
C2181      N2188   1.156       .  T
C2182      N2187   1.157       .  T
C2183      N2185   1.156       .  T
C2184      N2186   1.157       .  T
C2189      C2190   1.413       .  A
C2189      C2194   1.412       .  A
C2190      C2191   1.403       .  A
C2190      C2195   1.450       .  S
C2191      C2192   1.413       .  A
C2191      C2198   1.450       .  S
C2192      C2193   1.415       .  A
C2193      C2194   1.399       .  A
C2193      C2196   1.450       .  S
C2194      C2197   1.452       .  S
C2195      N2202   1.157       .  T
C2196      N2201   1.157       .  T
C2197      N2199   1.158       .  T
C2198      N2200   1.157       .  T
C2203      C2204   1.406       .  A
C2203      C2208   1.418       .  A
C2204      C2205   1.400       .  A
C2204      C2209   1.453       .  S
C2205      C2206   1.414       .  A
C2205      C2212   1.447       .  S
C2206      C2207   1.403       .  A
C2207      C2208   1.394       .  A
C2207      C2210   1.452       .  S
C2208      C2211   1.452       .  S
C2209      N2216   1.157       .  T
C2210      N2215   1.157       .  T
C2211      N2213   1.157       .  T
C2212      N2214   1.157       .  T
C2217      C2218   1.414       .  A
C2217      C2222   1.401       .  A
C2218      C2219   1.395       .  A
C2218      C2223   1.455       .  S
C2219      C2220   1.404       .  A
C2219      C2226   1.449       .  S
C2220      C2221   1.418       .  A
C2221      C2222   1.402       .  A
C2221      C2224   1.450       .  S
C2222      C2225   1.449       .  S
C2223      N2230   1.157       .  T
C2224      N2229   1.157       .  T
C2225      N2227   1.157       .  T
C2226      N2228   1.157       .  T
C2231      C2232   1.420       .  A
C2231      C2236   1.426       .  A
C2232      C2233   1.403       .  A
C2232      C2237   1.442       .  S
C2233      C2234   1.401       .  A
C2233      C2240   1.446       .  S
C2234      C2235   1.404       .  A
C2235      C2236   1.422       .  A
C2235      C2238   1.446       .  S
C2236      C2239   1.446   1_565  S
C2237      N2244   1.157       .  T
C2238      N2243   1.157       .  T
C2239      N2241   1.156       .  T
C2240      N2242   1.157       .  T
C2245      C2246   1.412       .  A
C2245      C2250   1.416       .  A
C2246      C2247   1.420       .  A
C2246      C2251   1.448       .  S
C2247      C2248   1.417       .  A
C2247      C2254   1.449       .  S
C2248      C2249   1.414       .  A
C2249      C2250   1.415       .  A
C2249      C2252   1.451       .  S
C2250      C2253   1.450       .  S
C2251      N2258   1.157       .  T
C2252      N2257   1.157       .  T
C2253      N2255   1.157       .  T
C2254      N2256   1.157       .  T
C2259      C2260   1.408       .  A
C2259      C2264   1.408       .  A
C2260      C2261   1.406       .  A
C2260      C2265   1.451       .  S
C2261      C2262   1.415       .  A
C2261      C2268   1.448       .  S
C2262      C2263   1.419       .  A
C2263      C2264   1.414       .  A
C2263      C2266   1.446       .  S
C2264      C2267   1.452       .  S
C2265      N2272   1.157       .  T
C2266      N2271   1.157       .  T
C2267      N2269   1.157       .  T
C2268      N2270   1.157       .  T
C2273      C2274   1.415       .  A
C2273      C2278   1.416       .  A
C2274      C2275   1.401       .  A
C2274      C2279   1.454       .  S
C2275      C2276   1.411       .  A
C2275      C2282   1.449       .  S
C2276      C2277   1.410       .  A
C2277      C2278   1.397       .  A
C2277      C2280   1.452       .  S
C2278      C2281   1.454       .  S
C2279      N2286   1.157       .  T
C2280      N2285   1.156       .  T
C2281      N2283   1.157       .  T
C2282      N2284   1.157       .  T
C2287      C2288   1.408       .  A
C2287      C2292   1.410       .  A
C2288      C2289   1.404       .  A
C2288      C2293   1.450       .  S
C2289      C2290   1.414       .  A
C2289      C2296   1.450       .  S
C2290      C2291   1.417       .  A
C2291      C2292   1.401       .  A
C2291      C2294   1.455       .  S
C2292      C2295   1.450       .  S
C2293      N2300   1.157       .  T
C2294      N2299   1.158       .  T
C2295      N2297   1.157       .  T
C2296      N2298   1.157       .  T
C2301      C2302   1.412       .  A
C2301      C2306   1.415       .  A
C2302      C2303   1.415       .  A
C2302      C2307   1.448       .  S
C2303      C2304   1.421       .  A
C2303      C2310   1.444       .  S
C2304      C2305   1.423       .  A
C2305      C2306   1.424       .  A
C2305      C2308   1.442   1_655  S
C2306      C2309   1.449       .  S
C2307      N2314   1.157       .  T
C2308      N2313   1.154       .  T
C2309      N2311   1.157       .  T
C2310      N2312   1.157       .  T
C2315      C2316   1.421       .  A
C2315      C2320   1.407       .  A
C2316      C2317   1.418       .  A
C2316      C2321   1.447       .  S
C2317      C2318   1.407       .  A
C2317      C2324   1.449       .  S
C2318      C2319   1.422       .  A
C2319      C2320   1.412       .  A
C2319      C2322   1.452       .  S
C2320      C2323   1.449       .  S
C2321      N2328   1.157   1_545  T
C2322      N2327   1.158       .  T
C2323      N2325   1.157       .  T
C2324      N2326   1.157       .  T
C2329      C2330   1.429       .  A
C2329      C2334   1.418       .  A
C2330      C2331   1.404       .  A
C2330      C2335   1.455       .  S
C2331      C2332   1.404       .  A
C2331      C2338   1.449       .  S
C2332      C2333   1.421       .  A
C2333      C2334   1.430       .  A
C2333      C2336   1.448       .  S
C2334      C2337   1.447       .  S
C2335      N2342   1.156       .  T
C2336      N2341   1.157       .  T
C2337      N2339   1.157       .  T
C2338      N2340   1.157       .  T
C2343      C2344   1.416       .  A
C2343      C2348   1.410       .  A
C2344      C2345   1.424       .  A
C2344      C2349   1.451       .  S
C2345      C2346   1.421       .  A
C2345      C2352   1.449       .  S
C2346      C2347   1.424       .  A
C2347      C2348   1.417       .  A
C2347      C2350   1.448       .  S
C2348      C2351   1.451       .  S
C2349      N2356   1.157       .  T
C2350      N2355   1.157       .  T
C2351      N2353   1.157       .  T
C2352      N2354   1.157       .  T
C2357      C2358   1.402       .  A
C2357      C2362   1.402       .  A
C2358      C2359   1.384       .  A
C2358      C2363   1.457       .  S
C2359      C2360   1.410       .  A
C2359      C2366   1.452       .  S
C2360      C2361   1.412       .  A
C2361      C2362   1.397       .  A
C2361      C2364   1.450       .  S
C2362      C2365   1.451       .  S
C2363      N2370   1.157       .  T
C2364      N2369   1.157       .  T
C2365      N2367   1.157       .  T
C2366      N2368   1.157       .  T
C2371      C2372   1.407       .  A
C2371      C2376   1.409       .  A
C2372      C2373   1.401       .  A
C2372      C2377   1.449       .  S
C2373      C2374   1.411       .  A
C2373      C2380   1.449       .  S
C2374      C2375   1.410       .  A
C2375      C2376   1.397       .  A
C2375      C2378   1.445       .  S
C2376      C2379   1.454       .  S
C2377      N2384   1.157       .  T
C2378      N2383   1.156       .  T
C2379      N2381   1.157       .  T
C2380      N2382   1.157       .  T
C2385      C2386   1.416       .  A
C2385      C2390   1.420       .  A
C2386      C2387   1.411       .  A
C2386      C2391   1.454       .  S
C2387      C2388   1.416       .  A
C2387      C2394   1.447       .  S
C2388      C2389   1.414       .  A
C2389      C2390   1.413       .  A
C2389      C2392   1.451       .  S
C2390      C2393   1.452       .  S
C2391      N2398   1.158       .  T
C2392      N2397   1.157       .  T
C2393      N2395   1.158       .  T
C2394      N2396   1.157       .  T
C2399      C2400   1.390       .  A
C2399      C2404   1.404       .  A
C2400      C2401   1.391       .  A
C2400      C2405   1.452       .  S
C2401      C2402   1.422       .  A
C2401      C2408   1.444       .  S
C2402      C2403   1.416       .  A
C2403      C2404   1.401       .  A
C2403      C2406   1.448       .  S
C2404      C2407   1.450       .  S
C2405      N2412   1.157       .  T
C2406      N2411   1.157       .  T
C2407      N2409   1.157       .  T
C2408      N2410   1.157       .  T
C2413      C2414   1.423       .  A
C2413      C2418   1.419       .  A
C2414      C2415   1.400       .  A
C2414      C2419   1.445       .  S
C2415      C2416   1.400       .  A
C2415      C2422   1.453       .  S
C2416      C2417   1.407       .  A
C2417      C2418   1.409       .  A
C2417      C2420   1.447       .  S
C2418      C2421   1.448       .  S
C2419      N2426   1.155       .  T
C2420      N2425   1.157       .  T
C2421      N2423   1.157       .  T
C2422      N2424   1.157       .  T
C2427      C2428   1.424       .  A
C2427      C2432   1.408       .  A
C2428      C2429   1.431       .  A
C2428      C2433   1.444       .  S
C2429      C2430   1.419       .  A
C2429      C2436   1.448       .  S
C2430      C2431   1.422       .  A
C2431      C2432   1.418       .  A
C2431      C2434   1.443       .  S
C2432      C2435   1.446       .  S
C2433      N2440   1.155       .  T
C2434      N2439   1.157       .  T
C2435      N2437   1.158       .  T
C2436      N2438   1.157       .  T
C2441      C2442   1.400       .  A
C2441      C2446   1.410       .  A
C2442      C2443   1.414       .  A
C2442      C2447   1.449       .  S
C2443      C2444   1.423       .  A
C2443      C2450   1.443       .  S
C2444      C2445   1.413       .  A
C2445      C2446   1.410       .  A
C2445      C2448   1.449       .  S
C2446      C2449   1.446       .  S
C2447      N2454   1.157       .  T
C2448      N2453   1.157       .  T
C2449      N2451   1.157       .  T
C2450      N2452   1.157       .  T
C2455      C2456   1.420       .  A
C2455      C2460   1.418       .  A
C2456      C2457   1.411       .  A
C2456      C2461   1.447       .  S
C2457      C2458   1.405       .  A
C2457      C2464   1.446       .  S
C2458      C2459   1.412       .  A
C2459      C2460   1.413       .  A
C2459      C2462   1.448       .  S
C2460      C2463   1.449       .  S
C2461      N2468   1.157       .  T
C2462      N2467   1.157   1_565  T
C2463      N2465   1.158       .  T
C2464      N2466   1.157       .  T
C2469      C2470   1.418       .  A
C2469      C2474   1.428       .  A
C2470      C2471   1.412       .  A
C2470      C2475   1.449       .  S
C2471      C2472   1.413       .  A
C2471      C2478   1.448       .  S
C2472      C2473   1.409       .  A
C2473      C2474   1.407       .  A
C2473      C2476   1.452       .  S
C2474      C2477   1.457       .  S
C2475      N2482   1.158       .  T
C2476      N2481   1.156       .  T
C2477      N2479   1.158   1_565  T
C2478      N2480   1.157       .  T
C2483      C2484   1.442       .  A
C2483      C2488   1.418       .  A
C2484      C2485   1.417       .  A
C2484      C2489   1.446       .  S
C2485      C2486   1.403       .  A
C2485      C2492   1.455   1_556  S
C2486      C2487   1.416       .  A
C2487      C2488   1.417       .  A
C2487      C2490   1.450       .  S
C2488      C2491   1.450       .  S
C2489      N2496   1.157   1_545  T
C2490      N2495   1.157       .  T
C2491      N2493   1.158       .  T
C2492      N2494   1.158       .  T
C2497      C2498   1.425       .  A
C2497      C2502   1.416       .  A
C2498      C2499   1.418       .  A
C2498      C2503   1.447       .  S
C2499      C2500   1.410       .  A
C2499      C2506   1.449       .  S
C2500      C2501   1.414       .  A
C2501      C2502   1.420       .  A
C2501      C2504   1.444       .  S
C2502      C2505   1.447       .  S
C2503      N2510   1.157   1_545  T
C2504      N2509   1.157       .  T
C2505      N2507   1.156       .  T
C2506      N2508   1.157   1_545  T
C2511      C2512   1.429       .  A
C2511      C2516   1.415       .  A
C2512      C2513   1.402       .  A
C2512      C2517   1.451       .  S
C2513      C2514   1.395       .  A
C2513      C2520   1.448   1_556  S
C2514      C2515   1.413       .  A
C2515      C2516   1.413       .  A
C2515      C2518   1.449       .  S
C2516      C2519   1.447       .  S
C2517      N2524   1.157   1_565  T
C2518      N2523   1.157   1_556  T
C2519      N2521   1.157       .  T
C2520      N2522   1.156       .  T
C2525      C2526   1.441       .  A
C2525      C2530   1.414       .  A
C2526      C2527   1.443       .  A
C2526      C2531   1.453       .  S
C2527      C2528   1.432       .  A
C2527      C2534   1.440       .  S
C2528      C2529   1.442       .  A
C2529      C2530   1.443       .  A
C2529      C2532   1.444       .  S
C2530      C2533   1.443       .  S
C2531      N2538   1.157       .  T
C2532      N2537   1.157       .  T
C2533      N2535   1.157       .  T
C2534      N2536   1.158   1_556  T
C2539      C2540   1.430       .  A
C2539      C2544   1.430       .  A
C2540      C2541   1.426       .  A
C2540      C2545   1.447       .  S
C2541      C2542   1.415       .  A
C2541      C2548   1.449       .  S
C2542      C2543   1.412       .  A
C2543      C2544   1.427       .  A
C2543      C2546   1.448       .  S
C2544      C2547   1.448       .  S
C2545      N2552   1.158       .  T
C2546      N2551   1.157       .  T
C2547      N2549   1.157       .  T
C2548      N2550   1.157       .  T
C2553      C2554   1.430       .  A
C2553      C2558   1.434       .  A
C2554      C2555   1.413       .  A
C2554      C2559   1.451       .  S
C2555      C2556   1.412       .  A
C2555      C2562   1.448       .  S
C2556      C2557   1.406       .  A
C2557      C2558   1.421       .  A
C2557      C2560   1.448       .  S
C2558      C2561   1.452       .  S
C2559      N2566   1.158       .  T
C2560      N2565   1.156       .  T
C2561      N2563   1.157       .  T
C2562      N2564   1.157       .  T
C2567      C2568   1.421       .  A
C2567      C2572   1.434       .  A
C2568      C2569   1.428       .  A
C2568      C2573   1.447       .  S
C2569      C2570   1.422       .  A
C2569      C2576   1.447       .  S
C2570      C2571   1.411       .  A
C2571      C2572   1.418       .  A
C2571      C2574   1.446       .  S
C2572      C2575   1.451       .  S
C2573      N2580   1.158       .  T
C2574      N2579   1.157       .  T
C2575      N2577   1.158       .  T
C2576      N2578   1.157       .  T
C2581      C2582   1.421       .  A
C2581      C2586   1.424       .  A
C2582      C2583   1.422       .  A
C2582      C2587   1.445       .  S
C2583      C2584   1.415       .  A
C2583      C2590   1.451       .  S
C2584      C2585   1.413       .  A
C2585      C2586   1.428       .  A
C2585      C2588   1.446       .  S
C2586      C2589   1.446       .  S
C2587      N2594   1.157       .  T
C2588      N2593   1.156       .  T
C2589      N2591   1.157       .  T
C2590      N2592   1.157       .  T
C2595      C2596   1.413       .  A
C2595      C2600   1.410       .  A
C2596      C2597   1.395       .  A
C2596      C2601   1.451       .  S
C2597      C2598   1.409       .  A
C2597      C2604   1.455       .  S
C2598      C2599   1.402       .  A
C2599      C2600   1.394       .  A
C2599      C2602   1.452       .  S
C2600      C2603   1.450       .  S
C2601      N2608   1.157       .  T
C2602      N2607   1.157       .  T
C2603      N2605   1.157       .  T
C2604      N2606   1.158       .  T
C2609      C2610   1.413       .  A
C2609      C2614   1.413       .  A
C2610      C2611   1.418       .  A
C2610      C2615   1.449       .  S
C2611      C2612   1.422       .  A
C2611      C2618   1.448       .  S
C2612      C2613   1.425       .  A
C2613      C2614   1.419       .  A
C2613      C2616   1.448       .  S
C2614      C2617   1.451       .  S
C2615      N2622   1.157       .  T
C2616      N2621   1.157       .  T
C2617      N2619   1.157       .  T
C2618      N2620   1.157       .  T
C2623      C2624   1.422       .  A
C2623      C2628   1.420       .  A
C2624      C2625   1.438       .  A
C2624      C2629   1.447       .  S
C2625      C2626   1.431       .  A
C2625      C2632   1.445       .  S
C2626      C2627   1.414       .  A
C2627      C2628   1.417       .  A
C2627      C2630   1.445       .  S
C2628      C2631   1.443       .  S
C2629      N2636   1.157       .  T
C2630      N2635   1.158       .  T
C2631      N2633   1.157       .  T
C2632      N2634   1.155   1_565  T
C2637      C2638   1.410       .  A
C2637      C2642   1.412       .  A
C2638      C2639   1.408       .  A
C2638      C2643   1.450       .  S
C2639      C2640   1.420       .  A
C2639      C2646   1.454       .  S
C2640      C2641   1.421       .  A
C2641      C2642   1.409       .  A
C2641      C2644   1.452       .  S
C2642      C2645   1.451       .  S
C2643      N2650   1.157       .  T
C2644      N2649   1.158       .  T
C2645      N2647   1.157       .  T
C2646      N2648   1.157       .  T
C2651      C2652   1.403       .  A
C2651      C2656   1.403       .  A
C2652      C2653   1.405       .  A
C2652      C2657   1.449       .  S
C2653      C2654   1.415       .  A
C2653      C2660   1.446       .  S
C2654      C2655   1.416       .  A
C2655      C2656   1.395       .  A
C2655      C2658   1.447       .  S
C2656      C2659   1.456       .  S
C2657      N2664   1.157       .  T
C2658      N2663   1.157       .  T
C2659      N2661   1.157       .  T
C2660      N2662   1.157       .  T
C2665      C2666   1.415       .  A
C2665      C2670   1.406       .  A
C2666      C2667   1.403       .  A
C2666      C2671   1.447       .  S
C2667      C2668   1.401       .  A
C2667      C2674   1.452       .  S
C2668      C2669   1.411       .  A
C2669      C2670   1.392       .  A
C2669      C2672   1.453       .  S
C2670      C2673   1.451       .  S
C2671      N2678   1.157       .  T
C2672      N2677   1.157       .  T
C2673      N2675   1.157       .  T
C2674      N2676   1.157       .  T
C2679      C2680   1.412       .  A
C2679      C2684   1.414       .  A
C2680      C2681   1.424       .  A
C2680      C2685   1.448       .  S
C2681      C2682   1.432       .  A
C2681      C2688   1.450       .  S
C2682      C2683   1.428       .  A
C2683      C2684   1.418       .  A
C2683      C2686   1.451       .  S
C2684      C2687   1.450       .  S
C2685      N2692   1.156       .  T
C2686      N2691   1.158       .  T
C2687      N2689   1.157       .  T
C2688      N2690   1.158       .  T
C2693      C2694   1.419       .  A
C2693      C2698   1.427       .  A
C2694      C2695   1.416       .  A
C2694      C2699   1.448       .  S
C2695      C2696   1.408       .  A
C2695      C2702   1.448       .  S
C2696      C2697   1.403       .  A
C2697      C2698   1.420       .  A
C2697      C2700   1.451       .  S
C2698      C2701   1.443       .  S
C2699      N2706   1.157       .  T
C2700      N2705   1.157       .  T
C2701      N2703   1.156       .  T
C2702      N2704   1.157       .  T
C2707      C2708   1.409       .  A
C2707      C2712   1.412       .  A
C2708      C2709   1.399       .  A
C2708      C2713   1.447       .  S
C2709      C2710   1.403       .  A
C2709      C2716   1.450       .  S
C2710      C2711   1.400       .  A
C2711      C2712   1.394       .  A
C2711      C2714   1.449       .  S
C2712      C2715   1.452       .  S
C2713      N2720   1.156       .  T
C2714      N2719   1.157       .  T
C2715      N2717   1.157       .  T
C2716      N2718   1.156       .  T
C2721      C2722   1.416       .  A
C2721      C2726   1.416       .  A
C2722      C2723   1.420       .  A
C2722      C2727   1.447       .  S
C2723      C2724   1.417       .  A
C2723      C2730   1.450       .  S
C2724      C2725   1.411       .  A
C2725      C2726   1.409       .  A
C2725      C2728   1.452       .  S
C2726      C2729   1.447       .  S
C2727      N2734   1.157       .  T
C2728      N2733   1.157       .  T
C2729      N2731   1.157       .  T
C2730      N2732   1.157       .  T
C2735      C2736   1.417       .  A
C2735      C2740   1.415       .  A
C2736      C2737   1.406       .  A
C2736      C2741   1.451       .  S
C2737      C2738   1.412       .  A
C2737      C2744   1.455       .  S
C2738      C2739   1.414       .  A
C2739      C2740   1.406       .  A
C2739      C2742   1.454       .  S
C2740      C2743   1.450       .  S
C2741      N2748   1.157       .  T
C2742      N2747   1.158       .  T
C2743      N2745   1.157       .  T
C2744      N2746   1.158       .  T
C2749      C2750   1.425       .  A
C2749      C2754   1.418       .  A
C2750      C2751   1.419       .  A
C2750      C2755   1.447       .  S
C2751      C2752   1.401       .  A
C2751      C2758   1.447       .  S
C2752      C2753   1.411       .  A
C2753      C2754   1.416       .  A
C2753      C2756   1.448       .  S
C2754      C2757   1.447       .  S
C2755      N2762   1.157       .  T
C2756      N2761   1.156       .  T
C2757      N2759   1.157       .  T
C2758      N2760   1.157       .  T
C2763      C2764   1.420       .  A
C2763      C2768   1.424       .  A
C2764      C2765   1.415       .  A
C2764      C2769   1.446       .  S
C2765      C2766   1.416       .  A
C2765      C2772   1.448       .  S
C2766      C2767   1.423       .  A
C2767      C2768   1.426       .  A
C2767      C2770   1.451       .  S
C2768      C2771   1.445       .  S
C2769      N2776   1.157       .  T
C2770      N2775   1.157       .  T
C2771      N2773   1.157       .  T
C2772      N2774   1.158       .  T
C2777      C2778   1.410       .  A
C2777      C2782   1.409       .  A
C2778      C2779   1.405       .  A
C2778      C2783   1.453       .  S
C2779      C2780   1.416       .  A
C2779      C2786   1.452       .  S
C2780      C2781   1.410       .  A
C2781      C2782   1.407       .  A
C2781      C2784   1.449       .  S
C2782      C2785   1.448       .  S
C2783      N2790   1.157       .  T
C2784      N2789   1.157       .  T
C2785      N2787   1.158       .  T
C2786      N2788   1.157       .  T
C2791      C2792   1.410       .  A
C2791      C2796   1.408       .  A
C2792      C2793   1.404       .  A
C2792      C2797   1.449       .  S
C2793      C2794   1.408       .  A
C2793      C2800   1.450       .  S
C2794      C2795   1.409       .  A
C2795      C2796   1.393       .  A
C2795      C2798   1.450       .  S
C2796      C2799   1.455       .  S
C2797      N2804   1.157       .  T
C2798      N2803   1.157       .  T
C2799      N2801   1.157       .  T
C2800      N2802   1.157       .  T
C2805      C2806   1.409       .  A
C2805      C2810   1.410       .  A
C2806      C2807   1.404       .  A
C2806      C2811   1.446       .  S
C2807      C2808   1.404       .  A
C2807      C2814   1.448       .  S
C2808      C2809   1.409       .  A
C2809      C2810   1.399       .  A
C2809      C2812   1.455       .  S
C2810      C2813   1.443       .  S
C2811      N2818   1.157       .  T
C2812      N2817   1.157       .  T
C2813      N2815   1.157       .  T
C2814      N2816   1.157       .  T
C2819      C2820   1.408       .  A
C2819      C2824   1.417       .  A
C2820      C2821   1.403       .  A
C2820      C2825   1.438       .  S
C2821      C2822   1.410       .  A
C2821      C2828   1.446       .  S
C2822      C2823   1.436       .  A
C2823      C2824   1.434       .  A
C2823      C2826   1.442       .  S
C2824      C2827   1.449       .  S
C2825      N2832   1.157       .  T
C2826      N2831   1.156       .  T
C2827      N2829   1.156       .  T
C2828      N2830   1.157       .  T
C2833      C2834   1.411       .  A
C2833      C2838   1.408       .  A
C2834      C2835   1.431       .  A
C2834      C2839   1.447       .  S
C2835      C2836   1.426       .  A
C2835      C2842   1.444       .  S
C2836      C2837   1.429       .  A
C2837      C2838   1.424       .  A
C2837      C2840   1.444       .  S
C2838      C2841   1.451       .  S
C2839      N2846   1.157       .  T
C2840      N2845   1.157       .  T
C2841      N2843   1.157       .  T
C2842      N2844   1.156       .  T
C2847      C2848   1.401       .  A
C2847      C2852   1.402       .  A
C2848      C2849   1.395       .  A
C2848      C2853   1.448       .  S
C2849      C2850   1.410       .  A
C2849      C2856   1.450       .  S
C2850      C2851   1.407       .  A
C2851      C2852   1.388       .  A
C2851      C2854   1.454       .  S
C2852      C2855   1.446       .  S
C2853      N2860   1.157       .  T
C2854      N2859   1.157       .  T
C2855      N2857   1.158       .  T
C2856      N2858   1.157   1_545  T
C2861      C2862   1.427       .  A
C2861      C2866   1.407       .  A
C2862      C2863   1.424       .  A
C2862      C2867   1.446       .  S
C2863      C2864   1.412       .  A
C2863      C2870   1.443       .  S
C2864      C2865   1.409       .  A
C2865      C2866   1.398       .  A
C2865      C2868   1.448       .  S
C2866      C2869   1.448       .  S
C2867      N2874   1.157       .  T
C2868      N2873   1.158       .  T
C2869      N2871   1.157       .  T
C2870      N2872   1.155       .  T
C2875      C2876   1.420       .  A
C2875      C2880   1.407       .  A
C2876      C2877   1.423       .  A
C2876      C2881   1.443       .  S
C2877      C2878   1.416       .  A
C2877      C2884   1.448       .  S
C2878      C2879   1.407       .  A
C2879      C2880   1.397       .  A
C2879      C2882   1.450       .  S
C2880      C2883   1.446       .  S
C2881      N2888   1.155       .  T
C2882      N2887   1.157       .  T
C2883      N2885   1.157       .  T
C2884      N2886   1.156       .  T
C2889      C2890   1.399       .  A
C2889      C2894   1.398       .  A
C2890      C2891   1.405       .  A
C2890      C2895   1.443       .  S
C2891      C2892   1.420       .  A
C2891      C2898   1.444       .  S
C2892      C2893   1.422       .  A
C2893      C2894   1.411       .  A
C2893      C2896   1.447       .  S
C2894      C2897   1.447       .  S
C2895      N2902   1.153       .  T
C2896      N2901   1.157       .  T
C2897      N2899   1.157       .  T
C2898      N2900   1.157       .  T
C2903      C2904   1.405   1_556  A
C2903      C2908   1.405       .  A
C2904      C2905   1.410       .  A
C2904      C2909   1.448       .  S
C2905      C2906   1.416   1_554  A
C2905      C2912   1.443       .  S
C2906      C2907   1.422       .  A
C2907      C2908   1.419       .  A
C2907      C2910   1.446       .  S
C2908      C2911   1.448       .  S
C2909      N2916   1.157       .  T
C2910      N2915   1.157       .  T
C2911      N2913   1.157       .  T
C2912      N2914   1.156       .  T
C2917      C2918   1.398       .  A
C2917      C2922   1.406       .  A
C2918      C2919   1.403       .  A
C2918      C2923   1.448       .  S
C2919      C2920   1.417       .  A
C2919      C2926   1.449       .  S
C2920      C2921   1.414       .  A
C2921      C2922   1.396       .  A
C2921      C2924   1.449       .  S
C2922      C2925   1.448       .  S
C2923      N2930   1.157       .  T
C2924      N2929   1.156       .  T
C2925      N2927   1.156       .  T
C2926      N2928   1.157   1_655  T
C2931      C2932   1.443       .  A
C2931      C2936   1.429       .  A
C2932      C2933   1.439       .  A
C2932      C2937   1.448   1_554  S
C2933      C2934   1.412       .  A
C2933      C2940   1.450       .  S
C2934      C2935   1.422       .  A
C2935      C2936   1.438       .  A
C2935      C2938   1.449       .  S
C2936      C2939   1.446       .  S
C2937      N2944   1.157       .  T
C2938      N2943   1.157       .  T
C2939      N2941   1.157       .  T
C2940      N2942   1.157       .  T
C2945      C2946   1.424       .  A
C2945      C2950   1.421       .  A
C2946      C2947   1.412       .  A
C2946      C2951   1.447       .  S
C2947      C2948   1.405       .  A
C2947      C2954   1.449   1_554  S
C2948      C2949   1.407       .  A
C2949      C2950   1.417       .  A
C2949      C2952   1.444       .  S
C2950      C2953   1.447       .  S
C2951      N2958   1.157   1_554  T
C2952      N2957   1.156       .  T
C2953      N2955   1.157       .  T
C2954      N2956   1.157       .  T
C2959      C2960   1.417       .  A
C2959      C2964   1.434       .  A
C2960      C2961   1.416       .  A
C2960      C2965   1.446       .  S
C2961      C2962   1.415   1_655  A
C2961      C2968   1.447       .  S
C2962      C2963   1.405       .  A
C2963      C2964   1.411   1_455  A
C2963      C2966   1.449       .  S
C2964      C2967   1.453   1_556  S
C2965      N2972   1.158       .  T
C2966      N2971   1.157       .  T
C2967      N2969   1.158   1_655  T
C2968      N2970   1.156   1_655  T
C2973      C2974   1.437       .  A
C2973      C2978   1.430       .  A
C2974      C2975   1.434       .  A
C2974      C2979   1.450       .  S
C2975      C2976   1.416       .  A
C2975      C2982   1.448       .  S
C2976      C2977   1.420       .  A
C2977      C2978   1.434       .  A
C2977      C2980   1.445       .  S
C2978      C2981   1.446       .  S
C2979      N2986   1.157       .  T
C2980      N2985   1.157       .  T
C2981      N2983   1.158       .  T
C2982      N2984   1.156       .  T
C2987      C2988   1.423       .  A
C2987      C2992   1.421       .  A
C2988      C2989   1.448       .  A
C2988      C2993   1.446       .  S
C2989      C2990   1.429       .  A
C2989      C2996   1.443       .  S
C2990      C2991   1.431       .  A
C2991      C2992   1.445       .  A
C2991      C2994   1.443       .  S
C2992      C2995   1.445       .  S
C2993      N3000   1.157       .  T
C2994      N2999   1.157       .  T
C2995      N2997   1.156       .  T
C2996      N2998   1.156       .  T
C3001      C3002   1.414       .  A
C3001      C3006   1.406       .  A
C3002      C3003   1.410       .  A
C3002      C3007   1.453       .  S
C3003      C3004   1.422       .  A
C3003      C3010   1.442       .  S
C3004      C3005   1.413       .  A
C3005      C3006   1.405       .  A
C3005      C3008   1.444       .  S
C3006      C3009   1.443       .  S
C3007      N3014   1.157       .  T
C3008      N3013   1.157       .  T
C3009      N3011   1.157       .  T
C3010      N3012   1.158       .  T
C3015      C3016   1.432       .  A
C3015      C3020   1.455       .  A
C3016      C3017   1.457       .  A
C3016      C3021   1.440       .  S
C3017      C3018   1.429       .  A
C3017      C3024   1.446       .  S
C3018      C3019   1.417       .  A
C3019      C3020   1.457       .  A
C3019      C3022   1.448       .  S
C3020      C3023   1.448       .  S
C3021      N3028   1.155       .  T
C3022      N3027   1.157       .  T
C3023      N3025   1.158       .  T
C3024      N3026   1.157       .  T
C3029      C3030   1.405       .  A
C3029      C3034   1.405       .  A
C3030      C3031   1.400       .  A
C3030      C3035   1.449       .  S
C3031      C3032   1.419       .  A
C3031      C3038   1.453       .  S
C3032      C3033   1.415       .  A
C3033      C3034   1.397       .  A
C3033      C3036   1.455       .  S
C3034      C3037   1.451       .  S
C3035      N3042   1.157       .  T
C3036      N3041   1.158       .  T
C3037      N3039   1.157       .  T
C3038      N3040   1.158       .  T
C3043      C3044   1.410       .  A
C3043      C3048   1.414       .  A
C3044      C3045   1.408       .  A
C3044      C3049   1.454       .  S
C3045      C3046   1.426       .  A
C3045      C3052   1.453       .  S
C3046      C3047   1.422       .  A
C3047      C3048   1.409       .  A
C3047      C3050   1.455       .  S
C3048      C3051   1.448       .  S
C3049      N3056   1.157       .  T
C3050      N3055   1.158       .  T
C3051      N3053   1.157       .  T
C3052      N3054   1.158       .  T
C3057      C3058   1.426       .  A
C3057      C3062   1.433       .  A
C3058      C3059   1.462       .  A
C3058      C3063   1.447       .  S
C3059      C3060   1.451       .  A
C3059      C3066   1.449       .  S
C3060      C3061   1.433       .  A
C3061      C3062   1.460       .  A
C3061      C3064   1.441       .  S
C3062      C3065   1.445       .  S
C3063      N3070   1.157       .  T
C3064      N3069   1.157       .  T
C3065      N3067   1.157       .  T
C3066      N3068   1.158       .  T
C3071      C3072   1.427       .  A
C3071      C3076   1.432       .  A
C3072      C3073   1.432       .  A
C3072      C3077   1.442       .  S
C3073      C3074   1.423       .  A
C3073      C3080   1.444       .  S
C3074      C3075   1.436       .  A
C3075      C3076   1.454       .  A
C3075      C3078   1.448       .  S
C3076      C3079   1.445       .  S
C3077      N3084   1.156       .  T
C3078      N3083   1.157       .  T
C3079      N3081   1.157       .  T
C3080      N3082   1.158       .  T
C3085      C3086   1.398       .  A
C3085      C3090   1.401       .  A
C3086      C3087   1.392       .  A
C3086      C3091   1.451       .  S
C3087      C3088   1.414       .  A
C3087      C3094   1.452       .  S
C3088      C3089   1.412       .  A
C3089      C3090   1.404       .  A
C3089      C3092   1.448       .  S
C3090      C3093   1.450       .  S
C3091      N3098   1.157   1_556  T
C3092      N3097   1.156       .  T
C3093      N3095   1.157       .  T
C3094      N3096   1.157       .  T
C3099      C3100   1.419       .  A
C3099      C3104   1.425       .  A
C3100      C3101   1.417       .  A
C3100      C3105   1.446       .  S
C3101      C3102   1.419       .  A
C3101      C3108   1.454       .  S
C3102      C3103   1.409       .  A
C3103      C3104   1.423       .  A
C3103      C3106   1.450       .  S
C3104      C3107   1.445       .  S
C3105      N3112   1.155       .  T
C3106      N3111   1.157       .  T
C3107      N3109   1.156       .  T
C3108      N3110   1.157       .  T
C3113      C3114   1.399       .  A
C3113      C3118   1.390       .  A
C3114      C3115   1.406       .  A
C3114      C3119   1.444       .  S
C3115      C3116   1.426       .  A
C3115      C3122   1.449       .  S
C3116      C3117   1.421       .  A
C3117      C3118   1.393       .  A
C3117      C3120   1.447       .  S
C3118      C3121   1.442       .  S
C3119      N3126   1.157       .  T
C3120      N3125   1.157       .  T
C3121      N3123   1.156       .  T
C3122      N3124   1.157       .  T
C3127      C3128   1.407       .  A
C3127      C3132   1.412       .  A
C3128      C3129   1.406       .  A
C3128      C3133   1.445       .  S
C3129      C3130   1.412       .  A
C3129      C3136   1.447       .  S
C3130      C3131   1.412       .  A
C3131      C3132   1.415       .  A
C3131      C3134   1.448       .  S
C3132      C3135   1.445       .  S
C3133      N3140   1.157       .  T
C3134      N3139   1.157       .  T
C3135      N3137   1.157       .  T
C3136      N3138   1.157       .  T
C3141      C3142   1.409       .  A
C3141      C3146   1.415       .  A
C3142      C3143   1.429       .  A
C3142      C3147   1.449       .  S
C3143      C3144   1.440       .  A
C3143      C3150   1.451       .  S
C3144      C3145   1.422       .  A
C3145      C3146   1.425       .  A
C3145      C3148   1.440       .  S
C3146      C3149   1.449       .  S
C3147      N3154   1.157       .  T
C3148      N3153   1.156       .  T
C3149      N3151   1.155       .  T
C3150      N3152   1.157       .  T
C3155      C3156   1.417       .  A
C3155      C3160   1.417       .  A
C3156      C3157   1.404       .  A
C3156      C3161   1.446       .  S
C3157      C3158   1.406       .  A
C3157      C3164   1.452       .  S
C3158      C3159   1.411       .  A
C3159      C3160   1.411       .  A
C3159      C3162   1.452       .  S
C3160      C3163   1.448       .  S
C3161      N3168   1.155       .  T
C3162      N3167   1.157   1_556  T
C3163      N3165   1.157       .  T
C3164      N3166   1.157       .  T
C3169      C3170   1.396       .  A
C3169      C3174   1.401       .  A
C3170      C3171   1.409       .  A
C3170      C3175   1.448       .  S
C3171      C3172   1.435       .  A
C3171      C3178   1.449       .  S
C3172      C3173   1.414       .  A
C3173      C3174   1.399       .  A
C3173      C3176   1.447       .  S
C3174      C3177   1.442       .  S
C3175      N3182   1.157       .  T
C3176      N3181   1.158       .  T
C3177      N3179   1.158       .  T
C3178      N3180   1.157       .  T
C3183      C3184   1.407       .  A
C3183      C3188   1.409       .  A
C3184      C3185   1.393       .  A
C3184      C3189   1.448       .  S
C3185      C3186   1.405       .  A
C3185      C3192   1.454       .  S
C3186      C3187   1.405       .  A
C3187      C3188   1.405       .  A
C3187      C3190   1.451       .  S
C3188      C3191   1.448       .  S
C3189      N3196   1.156       .  T
C3190      N3195   1.157       .  T
C3191      N3193   1.157       .  T
C3192      N3194   1.157       .  T
C3197      C3198   1.413       .  A
C3197      C3202   1.415       .  A
C3198      C3199   1.407       .  A
C3198      C3203   1.449       .  S
C3199      C3200   1.407       .  A
C3199      C3206   1.449       .  S
C3200      C3201   1.404       .  A
C3201      C3202   1.410       .  A
C3201      C3204   1.447       .  S
C3202      C3205   1.448       .  S
C3203      N3210   1.157       .  T
C3204      N3209   1.157       .  T
C3205      N3207   1.157       .  T
C3206      N3208   1.156       .  T
C3211      C3212   1.420       .  A
C3211      C3216   1.407       .  A
C3212      C3213   1.415       .  A
C3212      C3217   1.442       .  S
C3213      C3214   1.404       .  A
C3213      C3220   1.450       .  S
C3214      C3215   1.410       .  A
C3215      C3216   1.403       .  A
C3215      C3218   1.443       .  S
C3216      C3219   1.450       .  S
C3217      N3224   1.156       .  T
C3218      N3223   1.155       .  T
C3219      N3221   1.157       .  T
C3220      N3222   1.157       .  T
C3225      C3226   1.402       .  A
C3225      C3230   1.397       .  A
C3226      C3227   1.398       .  A
C3226      C3231   1.453       .  S
C3227      C3228   1.413       .  A
C3227      C3234   1.447       .  S
C3228      C3229   1.416       .  A
C3229      C3230   1.396       .  A
C3229      C3232   1.447       .  S
C3230      C3233   1.450       .  S
C3231      N3238   1.157   1_554  T
C3232      N3237   1.157       .  T
C3233      N3235   1.156       .  T
C3234      N3236   1.156       .  T
C3239      C3240   1.413       .  A
C3239      C3244   1.410       .  A
C3240      C3241   1.403       .  A
C3240      C3245   1.444       .  S
C3241      C3242   1.403       .  A
C3241      C3248   1.451       .  S
C3242      C3243   1.407       .  A
C3243      C3244   1.396       .  A
C3243      C3246   1.453       .  S
C3244      C3247   1.451       .  S
C3245      N3252   1.157       .  T
C3246      N3251   1.157       .  T
C3247      N3249   1.157       .  T
C3248      N3250   1.157       .  T
C3253      C3254   1.411       .  A
C3253      C3258   1.410       .  A
C3254      C3255   1.418       .  A
C3254      C3259   1.450       .  S
C3255      C3256   1.420       .  A
C3255      C3262   1.448       .  S
C3256      C3257   1.423       .  A
C3257      C3258   1.424       .  A
C3257      C3260   1.444       .  S
C3258      C3261   1.449       .  S
C3259      N3266   1.157       .  T
C3260      N3265   1.156       .  T
C3261      N3263   1.157       .  T
C3262      N3264   1.157       .  T
C3267      C3268   1.409       .  A
C3267      C3272   1.416       .  A
C3268      C3269   1.406       .  A
C3268      C3273   1.449       .  S
C3269      C3270   1.412       .  A
C3269      C3276   1.451       .  S
C3270      C3271   1.406       .  A
C3271      C3272   1.400       .  A
C3271      C3274   1.452       .  S
C3272      C3275   1.448       .  S
C3273      N3280   1.157       .  T
C3274      N3279   1.157       .  T
C3275      N3277   1.157       .  T
C3276      N3278   1.157       .  T
C3281      C3282   1.403       .  A
C3281      C3286   1.403       .  A
C3282      C3283   1.413       .  A
C3282      C3287   1.447       .  S
C3283      C3284   1.418       .  A
C3283      C3290   1.446       .  S
C3284      C3285   1.418       .  A
C3285      C3286   1.409       .  A
C3285      C3288   1.447       .  S
C3286      C3289   1.449       .  S
C3287      N3294   1.157       .  T
C3288      N3293   1.157       .  T
C3289      N3291   1.157       .  T
C3290      N3292   1.157       .  T
C3295      C3296   1.410       .  A
C3295      C3300   1.415       .  A
C3296      C3297   1.404       .  A
C3296      C3301   1.449       .  S
C3297      C3298   1.417       .  A
C3297      C3304   1.454       .  S
C3298      C3299   1.414       .  A
C3299      C3300   1.409       .  A
C3299      C3302   1.453       .  S
C3300      C3303   1.448       .  S
C3301      N3308   1.157       .  T
C3302      N3307   1.158       .  T
C3303      N3305   1.157       .  T
C3304      N3306   1.158       .  T
C3309      C3310   1.409       .  A
C3309      C3314   1.409   1_554  A
C3310      C3311   1.416       .  A
C3310      C3315   1.448       .  S
C3311      C3312   1.424       .  A
C3311      C3318   1.448       .  S
C3312      C3313   1.425       .  A
C3313      C3314   1.418   1_554  A
C3313      C3316   1.449       .  S
C3314      C3317   1.446       .  S
C3315      N3322   1.157       .  T
C3316      N3321   1.157   1_554  T
C3317      N3319   1.157       .  T
C3318      N3320   1.157       .  T
C3323      C3324   1.410       .  A
C3323      C3328   1.406       .  A
C3324      C3325   1.417       .  A
C3324      C3329   1.451       .  S
C3325      C3326   1.422       .  A
C3325      C3332   1.447       .  S
C3326      C3327   1.421       .  A
C3327      C3328   1.421       .  A
C3327      C3330   1.444       .  S
C3328      C3331   1.448       .  S
C3329      N3336   1.157       .  T
C3330      N3335   1.156       .  T
C3331      N3333   1.157       .  T
C3332      N3334   1.157       .  T
C3337      C3338   1.413       .  A
C3337      C3342   1.421       .  A
C3338      C3339   1.400       .  A
C3338      C3343   1.439       .  S
C3339      C3340   1.399       .  A
C3339      C3346   1.443       .  S
C3340      C3341   1.433       .  A
C3341      C3342   1.437       .  A
C3341      C3344   1.448       .  S
C3342      C3345   1.445       .  S
C3343      N3350   1.157       .  T
C3344      N3349   1.157       .  T
C3345      N3347   1.157       .  T
C3346      N3348   1.158       .  T
C3351      C3352   1.426       .  A
C3351      C3356   1.423       .  A
C3352      C3353   1.420       .  A
C3352      C3357   1.448       .  S
C3353      C3354   1.411       .  A
C3353      C3360   1.445       .  S
C3354      C3355   1.423       .  A
C3355      C3356   1.431       .  A
C3355      C3358   1.444       .  S
C3356      C3359   1.447       .  S
C3357      N3364   1.157       .  T
C3358      N3363   1.157       .  T
C3359      N3361   1.158       .  T
C3360      N3362   1.157       .  T
C3365      C3366   1.415       .  A
C3365      C3370   1.406       .  A
C3366      C3367   1.414       .  A
C3366      C3371   1.448       .  S
C3367      C3368   1.409       .  A
C3367      C3374   1.448       .  S
C3368      C3369   1.407       .  A
C3369      C3370   1.393       .  A
C3369      C3372   1.449       .  S
C3370      C3373   1.450       .  S
C3371      N3378   1.157       .  T
C3372      N3377   1.157       .  T
C3373      N3375   1.157       .  T
C3374      N3376   1.157       .  T
C3379      C3380   1.452       .  A
C3379      C3384   1.411       .  A
C3380      C3381   1.437       .  A
C3380      C3385   1.452       .  S
C3381      C3382   1.414       .  A
C3381      C3388   1.443       .  S
C3382      C3383   1.438       .  A
C3383      C3384   1.433       .  A
C3383      C3386   1.444       .  S
C3384      C3387   1.443       .  S
C3385      N3392   1.158       .  T
C3386      N3391   1.157       .  T
C3387      N3389   1.157       .  T
C3388      N3390   1.157       .  T
C3393      C3394   1.412       .  A
C3393      C3398   1.410       .  A
C3394      C3395   1.414       .  A
C3394      C3399   1.449   1_554  S
C3395      C3396   1.416       .  A
C3395      C3402   1.446   1_554  S
C3396      C3397   1.413       .  A
C3397      C3398   1.410       .  A
C3397      C3400   1.447       .  S
C3398      C3401   1.448       .  S
C3399      N3406   1.157       .  T
C3400      N3405   1.157       .  T
C3401      N3403   1.157       .  T
C3402      N3404   1.157       .  T
C3407      C3408   1.421       .  A
C3407      C3412   1.418       .  A
C3408      C3409   1.442       .  A
C3408      C3413   1.446       .  S
C3409      C3410   1.440       .  A
C3409      C3416   1.450       .  S
C3410      C3411   1.417       .  A
C3411      C3412   1.418       .  A
C3411      C3414   1.443       .  S
C3412      C3415   1.443       .  S
C3413      N3420   1.157       .  T
C3414      N3419   1.158       .  T
C3415      N3417   1.157       .  T
C3416      N3418   1.158       .  T
C3421      C3422   1.414       .  A
C3421      C3426   1.416       .  A
C3422      C3423   1.406       .  A
C3422      C3427   1.447       .  S
C3423      C3424   1.409       .  A
C3423      C3430   1.446       .  S
C3424      C3425   1.410       .  A
C3425      C3426   1.396       .  A
C3425      C3428   1.450       .  S
C3426      C3429   1.448       .  S
C3427      N3434   1.156       .  T
C3428      N3433   1.158       .  T
C3429      N3431   1.157   1_455  T
C3430      N3432   1.158       .  T
C3435      C3436   1.407       .  A
C3435      C3440   1.413       .  A
C3436      C3437   1.417       .  A
C3436      C3441   1.452       .  S
C3437      C3438   1.425       .  A
C3437      C3444   1.443       .  S
C3438      C3439   1.415       .  A
C3439      C3440   1.410       .  A
C3439      C3442   1.448       .  S
C3440      C3443   1.450       .  S
C3441      N3448   1.158       .  T
C3442      N3447   1.156       .  T
C3443      N3445   1.157       .  T
C3444      N3446   1.154       .  T
C3449      C3450   1.410       .  A
C3449      C3454   1.415       .  A
C3450      C3451   1.402       .  A
C3450      C3455   1.447       .  S
C3451      C3452   1.407       .  A
C3451      C3458   1.453       .  S
C3452      C3453   1.402       .  A
C3453      C3454   1.403       .  A
C3453      C3456   1.451       .  S
C3454      C3457   1.448       .  S
C3455      N3462   1.157       .  T
C3456      N3461   1.157       .  T
C3457      N3459   1.157       .  T
C3458      N3460   1.157       .  T
C3463      C3464   1.433       .  A
C3463      C3468   1.423       .  A
C3464      C3465   1.446       .  A
C3464      C3469   1.443       .  S
C3465      C3466   1.430       .  A
C3465      C3472   1.450       .  S
C3466      C3467   1.423       .  A
C3467      C3468   1.426       .  A
C3467      C3470   1.448       .  S
C3468      C3471   1.444       .  S
C3469      N3476   1.156       .  T
C3470      N3475   1.158       .  T
C3471      N3473   1.157       .  T
C3472      N3474   1.158       .  T
C3477      C3478   1.412       .  A
C3477      C3482   1.413       .  A
C3478      C3479   1.433       .  A
C3478      C3483   1.450       .  S
C3479      C3480   1.432       .  A
C3479      C3486   1.444       .  S
C3480      C3481   1.429       .  A
C3481      C3482   1.438       .  A
C3481      C3484   1.445       .  S
C3482      C3485   1.447       .  S
C3483      N3490   1.157       .  T
C3484      N3489   1.157       .  T
C3485      N3487   1.157       .  T
C3486      N3488   1.157       .  T
C3491      C3492   1.410       .  A
C3491      C3496   1.407       .  A
C3492      C3493   1.407       .  A
C3492      C3497   1.450       .  S
C3493      C3494   1.412       .  A
C3493      C3500   1.451       .  S
C3494      C3495   1.414       .  A
C3495      C3496   1.396       .  A
C3495      C3498   1.455       .  S
C3496      C3499   1.452       .  S
C3497      N3504   1.157       .  T
C3498      N3503   1.158       .  T
C3499      N3501   1.156       .  T
C3500      N3502   1.157   1_556  T
C3505      C3506   1.411       .  A
C3505      C3510   1.414       .  A
C3506      C3507   1.406       .  A
C3506      C3511   1.446       .  S
C3507      C3508   1.407       .  A
C3507      C3514   1.448       .  S
C3508      C3509   1.404       .  A
C3509      C3510   1.407       .  A
C3509      C3512   1.447       .  S
C3510      C3513   1.448       .  S
C3511      N3518   1.157       .  T
C3512      N3517   1.156       .  T
C3513      N3515   1.157       .  T
C3514      N3516   1.156       .  T
C3519      C3520   1.419       .  A
C3519      C3524   1.420       .  A
C3520      C3521   1.420       .  A
C3520      C3525   1.449       .  S
C3521      C3522   1.416       .  A
C3521      C3528   1.449       .  S
C3522      C3523   1.415       .  A
C3523      C3524   1.415       .  A
C3523      C3526   1.451       .  S
C3524      C3527   1.453       .  S
C3525      N3532   1.157       .  T
C3526      N3531   1.157       .  T
C3527      N3529   1.158       .  T
C3528      N3530   1.157       .  T
C3533      C3534   1.423       .  A
C3533      C3538   1.421       .  A
C3534      C3535   1.423       .  A
C3534      C3539   1.446       .  S
C3535      C3536   1.409       .  A
C3535      C3542   1.447       .  S
C3536      C3537   1.408       .  A
C3537      C3538   1.417       .  A
C3537      C3540   1.449       .  S
C3538      C3541   1.449       .  S
C3539      N3546   1.157       .  T
C3540      N3545   1.157       .  T
C3541      N3543   1.157       .  T
C3542      N3544   1.156       .  T
C3547      C3548   1.416       .  A
C3547      C3552   1.415       .  A
C3548      C3549   1.417       .  A
C3548      C3553   1.446       .  S
C3549      C3550   1.423       .  A
C3549      C3556   1.444       .  S
C3550      C3551   1.434       .  A
C3551      C3552   1.419       .  A
C3551      C3554   1.454       .  S
C3552      C3555   1.448       .  S
C3553      N3560   1.157       .  T
C3554      N3559   1.158       .  T
C3555      N3557   1.157       .  T
C3556      N3558   1.158       .  T
C3561      C3562   1.417       .  A
C3561      C3566   1.411       .  A
C3562      C3563   1.406       .  A
C3562      C3567   1.450       .  S
C3563      C3564   1.408       .  A
C3563      C3570   1.452       .  S
C3564      C3565   1.407       .  A
C3565      C3566   1.406       .  A
C3565      C3568   1.444       .  S
C3566      C3569   1.451       .  S
C3567      N3574   1.157       .  T
C3568      N3573   1.155       .  T
C3569      N3571   1.157       .  T
C3570      N3572   1.158       .  T
C3575      C3576   1.401       .  A
C3575      C3580   1.405       .  A
C3576      C3577   1.410       .  A
C3576      C3581   1.447       .  S
C3577      C3578   1.423       .  A
C3577      C3584   1.445       .  S
C3578      C3579   1.421       .  A
C3579      C3580   1.407       .  A
C3579      C3582   1.444       .  S
C3580      C3583   1.451       .  S
C3581      N3588   1.157       .  T
C3582      N3587   1.156       .  T
C3583      N3585   1.157       .  T
C3584      N3586   1.155       .  T
C3589      C3590   1.410       .  A
C3589      C3594   1.428       .  A
C3590      C3591   1.410       .  A
C3590      C3595   1.450       .  S
C3591      C3592   1.414       .  A
C3591      C3598   1.446       .  S
C3592      C3593   1.410       .  A
C3593      C3594   1.403       .  A
C3593      C3596   1.454       .  S
C3594      C3597   1.450       .  S
C3595      N3602   1.157       .  T
C3596      N3601   1.157       .  T
C3597      N3599   1.158       .  T
C3598      N3600   1.157       .  T
C3603      C3604   1.428       .  A
C3603      C3608   1.430       .  A
C3604      C3605   1.426       .  A
C3604      C3609   1.450       .  S
C3605      C3606   1.418       .  A
C3605      C3612   1.441       .  S
C3606      C3607   1.426       .  A
C3607      C3608   1.451       .  A
C3607      C3610   1.446       .  S
C3608      C3611   1.445       .  S
C3609      N3616   1.157       .  T
C3610      N3615   1.157       .  T
C3611      N3613   1.157       .  T
C3612      N3614   1.157       .  T
C3617      C3618   1.420       .  A
C3617      C3622   1.413       .  A
C3618      C3619   1.418       .  A
C3618      C3623   1.447       .  S
C3619      C3620   1.411       .  A
C3619      C3626   1.451       .  S
C3620      C3621   1.413       .  A
C3621      C3622   1.414       .  A
C3621      C3624   1.449       .  S
C3622      C3625   1.448       .  S
C3623      N3630   1.157       .  T
C3624      N3629   1.157       .  T
C3625      N3627   1.157       .  T
C3626      N3628   1.157       .  T
C3631      C3632   1.407       .  A
C3631      C3636   1.415       .  A
C3632      C3633   1.410       .  A
C3632      C3637   1.452       .  S
C3633      C3634   1.424       .  A
C3633      C3640   1.451       .  S
C3634      C3635   1.416       .  A
C3635      C3636   1.412       .  A
C3635      C3638   1.452       .  S
C3636      C3639   1.449       .  S
C3637      N3644   1.157       .  T
C3638      N3643   1.158       .  T
C3639      N3641   1.157       .  T
C3640      N3642   1.157       .  T
C3645      C3646   1.432       .  A
C3645      C3650   1.428       .  A
C3646      C3647   1.451       .  A
C3646      C3651   1.447       .  S
C3647      C3648   1.431       .  A
C3647      C3654   1.447       .  S
C3648      C3649   1.419       .  A
C3649      C3650   1.434       .  A
C3649      C3652   1.444       .  S
C3650      C3653   1.445       .  S
C3651      N3658   1.158       .  T
C3652      N3657   1.156       .  T
C3653      N3655   1.156       .  T
C3654      N3656   1.157       .  T
C3659      C3660   1.424       .  A
C3659      C3664   1.432       .  A
C3660      C3661   1.420       .  A
C3660      C3665   1.441       .  S
C3661      C3662   1.413       .  A
C3661      C3668   1.446       .  S
C3662      C3663   1.425       .  A
C3663      C3664   1.441       .  A
C3663      C3666   1.450       .  S
C3664      C3667   1.444       .  S
C3665      N3672   1.156       .  T
C3666      N3671   1.157       .  T
C3667      N3669   1.157       .  T
C3668      N3670   1.158       .  T
C3673      C3674   1.403       .  A
C3673      C3678   1.401       .  A
C3674      C3675   1.405       .  A
C3674      C3679   1.448       .  S
C3675      C3676   1.414       .  A
C3675      C3682   1.450       .  S
C3676      C3677   1.413       .  A
C3677      C3678   1.398       .  A
C3677      C3680   1.451       .  S
C3678      C3681   1.452       .  S
C3679      N3686   1.157       .  T
C3680      N3685   1.157       .  T
C3681      N3683   1.158       .  T
C3682      N3684   1.157       .  T
C3687      C3688   1.415       .  A
C3687      C3692   1.410       .  A
C3688      C3689   1.405       .  A
C3688      C3693   1.449       .  S
C3689      C3690   1.410       .  A
C3689      C3696   1.454       .  S
C3690      C3691   1.411       .  A
C3691      C3692   1.409       .  A
C3691      C3694   1.448       .  S
C3692      C3695   1.447       .  S
C3693      N3700   1.157       .  T
C3694      N3699   1.157       .  T
C3695      N3697   1.157       .  T
C3696      N3698   1.157       .  T
C3701      C3702   1.417       .  A
C3701      C3706   1.409       .  A
C3702      C3703   1.406       .  A
C3702      C3707   1.447       .  S
C3703      C3704   1.407       .  A
C3703      C3710   1.450       .  S
C3704      C3705   1.415       .  A
C3705      C3706   1.409       .  A
C3705      C3708   1.450       .  S
C3706      C3709   1.451       .  S
C3707      N3714   1.154       .  T
C3708      N3713   1.157       .  T
C3709      N3711   1.157       .  T
C3710      N3712   1.158       .  T
C3715      C3716   1.420       .  A
C3715      C3720   1.418       .  A
C3716      C3717   1.407       .  A
C3716      C3721   1.449       .  S
C3717      C3718   1.399       .  A
C3717      C3724   1.448       .  S
C3718      C3719   1.397       .  A
C3719      C3720   1.396       .  A
C3719      C3722   1.448       .  S
C3720      C3723   1.447       .  S
C3721      N3728   1.157       .  T
C3722      N3727   1.155       .  T
C3723      N3725   1.157       .  T
C3724      N3726   1.157       .  T
C3729      C3730   1.406       .  A
C3729      C3734   1.400       .  A
C3730      C3731   1.408       .  A
C3730      C3735   1.450       .  S
C3731      C3732   1.417       .  A
C3731      C3738   1.448       .  S
C3732      C3733   1.419       .  A
C3733      C3734   1.405       .  A
C3733      C3736   1.451       .  S
C3734      C3737   1.448       .  S
C3735      N3742   1.157       .  T
C3736      N3741   1.157       .  T
C3737      N3739   1.157       .  T
C3738      N3740   1.157       .  T
C3743      C3744   1.421       .  A
C3743      C3748   1.413       .  A
C3744      C3745   1.409       .  A
C3744      C3749   1.446       .  S
C3745      C3746   1.409       .  A
C3745      C3752   1.452       .  S
C3746      C3747   1.406       .  A
C3747      C3748   1.399       .  A
C3747      C3750   1.447       .  S
C3748      C3751   1.448       .  S
C3749      N3756   1.157       .  T
C3750      N3755   1.157       .  T
C3751      N3753   1.157       .  T
C3752      N3754   1.157       .  T
C3757      C3758   1.412       .  A
C3757      C3762   1.416   1_655  A
C3758      C3759   1.425       .  A
C3758      C3763   1.446       .  S
C3759      C3760   1.422       .  A
C3759      C3766   1.444       .  S
C3760      C3761   1.416   1_655  A
C3761      C3762   1.425       .  A
C3761      C3764   1.446       .  S
C3762      C3765   1.444       .  S
C3763      N3770   1.157       .  T
C3764      N3769   1.157       .  T
C3765      N3767   1.156       .  T
C3766      N3768   1.157       .  T
C3771      C3772   1.442       .  A
C3771      C3776   1.443       .  A
C3772      C3773   1.448       .  A
C3772      C3777   1.439       .  S
C3773      C3774   1.421       .  A
C3773      C3780   1.449       .  S
C3774      C3775   1.425       .  A
C3775      C3776   1.461       .  A
C3775      C3778   1.446       .  S
C3776      C3779   1.446       .  S
C3777      N3784   1.155   1_455  T
C3778      N3783   1.157       .  T
C3779      N3781   1.157       .  T
C3780      N3782   1.157       .  T
C3785      C3786   1.419       .  A
C3785      C3790   1.417       .  A
C3786      C3787   1.396       .  A
C3786      C3791   1.444   1_545  S
C3787      C3788   1.408       .  A
C3787      C3794   1.452       .  S
C3788      C3789   1.420       .  A
C3789      C3790   1.416       .  A
C3789      C3792   1.443       .  S
C3790      C3793   1.449       .  S
C3791      N3798   1.156       .  T
C3792      N3797   1.157       .  T
C3793      N3795   1.157       .  T
C3794      N3796   1.158       .  T
C3799      C3800   1.431       .  A
C3799      C3804   1.433       .  A
C3800      C3801   1.423       .  A
C3800      C3805   1.450       .  S
C3801      C3802   1.414       .  A
C3801      C3808   1.447       .  S
C3802      C3803   1.412       .  A
C3803      C3804   1.427       .  A
C3803      C3806   1.450       .  S
C3804      C3807   1.446       .  S
C3805      N3812   1.157       .  T
C3806      N3811   1.157       .  T
C3807      N3809   1.157       .  T
C3808      N3810   1.157       .  T
C3813      C3814   1.421       .  A
C3813      C3818   1.420       .  A
C3814      C3815   1.413       .  A
C3814      C3819   1.452       .  S
C3815      C3816   1.420       .  A
C3815      C3822   1.448       .  S
C3816      C3817   1.415       .  A
C3817      C3818   1.415       .  A
C3817      C3820   1.445       .  S
C3818      C3821   1.445       .  S
C3819      N3826   1.158       .  T
C3820      N3825   1.156       .  T
C3821      N3823   1.157       .  T
C3822      N3824   1.157       .  T
C3827      C3828   1.434       .  A
C3827      C3832   1.441       .  A
C3828      C3829   1.440       .  A
C3828      C3833   1.447       .  S
C3829      C3830   1.420       .  A
C3829      C3836   1.448       .  S
C3830      C3831   1.412       .  A
C3831      C3832   1.436       .  A
C3831      C3834   1.446       .  S
C3832      C3835   1.451       .  S
C3833      N3840   1.158       .  T
C3834      N3839   1.156       .  T
C3835      N3837   1.157       .  T
C3836      N3838   1.157       .  T
C3841      C3842   1.409       .  A
C3841      C3846   1.410       .  A
C3842      C3843   1.415       .  A
C3842      C3847   1.448       .  S
C3843      C3844   1.418       .  A
C3843      C3850   1.447       .  S
C3844      C3845   1.415       .  A
C3845      C3846   1.417       .  A
C3845      C3848   1.446       .  S
C3846      C3849   1.447       .  S
C3847      N3854   1.157       .  T
C3848      N3853   1.157       .  T
C3849      N3851   1.157       .  T
C3850      N3852   1.157       .  T
C3855      C3856   1.427       .  A
C3855      C3860   1.421       .  A
C3856      C3857   1.420       .  A
C3856      C3861   1.447       .  S
C3857      C3858   1.412       .  A
C3857      C3864   1.449       .  S
C3858      C3859   1.414       .  A
C3859      C3860   1.421       .  A
C3859      C3862   1.449       .  S
C3860      C3863   1.441       .  S
C3861      N3868   1.155       .  T
C3862      N3867   1.157       .  T
C3863      N3865   1.158       .  T
C3864      N3866   1.156       .  T
C3869      C3870   1.417       .  A
C3869      C3874   1.425       .  A
C3870      C3871   1.398       .  A
C3870      C3875   1.444       .  S
C3871      C3872   1.401       .  A
C3871      C3878   1.450       .  S
C3872      C3873   1.399       .  A
C3873      C3874   1.412       .  A
C3873      C3876   1.449       .  S
C3874      C3877   1.445   1_545  S
C3875      N3882   1.157       .  T
C3876      N3881   1.157       .  T
C3877      N3879   1.156       .  T
C3878      N3880   1.158       .  T
C3883      C3884   1.417       .  A
C3883      C3888   1.416       .  A
C3884      C3885   1.415       .  A
C3884      C3889   1.448       .  S
C3885      C3886   1.411       .  A
C3885      C3892   1.446       .  S
C3886      C3887   1.410       .  A
C3887      C3888   1.408       .  A
C3887      C3890   1.453       .  S
C3888      C3891   1.447       .  S
C3889      N3896   1.157       .  T
C3890      N3895   1.157       .  T
C3891      N3893   1.157       .  T
C3892      N3894   1.155       .  T
C3897      C3898   1.413       .  A
C3897      C3902   1.414       .  A
C3898      C3899   1.400       .  A
C3898      C3903   1.449       .  S
C3899      C3900   1.409       .  A
C3899      C3906   1.454       .  S
C3900      C3901   1.411       .  A
C3901      C3902   1.400       .  A
C3901      C3904   1.455       .  S
C3902      C3905   1.451       .  S
C3903      N3910   1.157       .  T
C3904      N3909   1.158       .  T
C3905      N3907   1.157       .  T
C3906      N3908   1.157       .  T
C3911      C3912   1.420       .  A
C3911      C3916   1.419       .  A
C3912      C3913   1.417       .  A
C3912      C3917   1.445       .  S
C3913      C3914   1.423       .  A
C3913      C3920   1.451       .  S
C3914      C3915   1.398       .  A
C3915      C3916   1.403       .  A
C3915      C3918   1.443       .  S
C3916      C3919   1.442       .  S
C3917      N3924   1.156       .  T
C3918      N3923   1.157       .  T
C3919      N3921   1.157       .  T
C3920      N3922   1.157       .  T
C3925      C3926   1.408       .  A
C3925      C3930   1.408       .  A
C3926      C3927   1.425       .  A
C3926      C3931   1.449       .  S
C3927      C3928   1.425       .  A
C3927      C3934   1.447       .  S
C3928      C3929   1.424       .  A
C3929      C3930   1.424       .  A
C3929      C3932   1.447       .  S
C3930      C3933   1.449       .  S
C3931      N3938   1.157       .  T
C3932      N3937   1.157       .  T
C3933      N3935   1.157       .  T
C3934      N3936   1.157       .  T
C3939      C3940   1.417       .  A
C3939      C3944   1.410       .  A
C3940      C3941   1.404       .  A
C3940      C3945   1.448       .  S
C3941      C3942   1.401       .  A
C3941      C3948   1.448       .  S
C3942      C3943   1.406       .  A
C3943      C3944   1.402       .  A
C3943      C3946   1.444       .  S
C3944      C3947   1.450       .  S
C3945      N3952   1.157       .  T
C3946      N3951   1.154   1_655  T
C3947      N3949   1.157       .  T
C3948      N3950   1.157       .  T
C3953      C3954   1.415       .  A
C3953      C3958   1.418       .  A
C3954      C3955   1.412       .  A
C3954      C3959   1.447       .  S
C3955      C3956   1.409       .  A
C3955      C3962   1.451       .  S
C3956      C3957   1.410       .  A
C3957      C3958   1.412       .  A
C3957      C3960   1.452       .  S
C3958      C3961   1.449       .  S
C3959      N3966   1.156       .  T
C3960      N3965   1.157       .  T
C3961      N3963   1.157       .  T
C3962      N3964   1.157       .  T
C3967      C3968   1.412       .  A
C3967      C3972   1.407       .  A
C3968      C3969   1.406       .  A
C3968      C3973   1.447       .  S
C3969      C3970   1.405       .  A
C3969      C3976   1.449       .  S
C3970      C3971   1.410       .  A
C3971      C3972   1.395       .  A
C3971      C3974   1.455       .  S
C3972      C3975   1.449       .  S
C3973      N3980   1.157       .  T
C3974      N3979   1.157       .  T
C3975      N3977   1.157       .  T
C3976      N3978   1.157       .  T
C3981      C3982   1.431       .  A
C3981      C3986   1.418       .  A
C3982      C3983   1.432       .  A
C3982      C3987   1.451       .  S
C3983      C3984   1.422       .  A
C3983      C3990   1.448       .  S
C3984      C3985   1.422       .  A
C3985      C3986   1.429       .  A
C3985      C3988   1.447       .  S
C3986      C3989   1.442       .  S
C3987      N3994   1.158       .  T
C3988      N3993   1.156       .  T
C3989      N3991   1.155   1_655  T
C3990      N3992   1.157       .  T
C3995      C3996   1.427       .  A
C3995      C4000   1.420       .  A
C3996      C3997   1.429       .  A
C3996      C4001   1.443       .  S
C3997      C3998   1.415       .  A
C3997      C4004   1.447       .  S
C3998      C3999   1.432       .  A
C3999      C4000   1.437       .  A
C3999      C4002   1.449       .  S
C4000      C4003   1.449       .  S
C4001      N4008   1.157       .  T
C4002      N4007   1.157       .  T
C4003      N4005   1.157       .  T
C4004      N4006   1.157       .  T
C4009      C4010   1.414       .  A
C4009      C4014   1.412       .  A
C4010      C4011   1.395       .  A
C4010      C4015   1.448       .  S
C4011      C4012   1.402       .  A
C4011      C4018   1.452       .  S
C4012      C4013   1.402       .  A
C4013      C4014   1.396       .  A
C4013      C4016   1.448       .  S
C4014      C4017   1.447       .  S
C4015      N4022   1.157       .  T
C4016      N4021   1.157       .  T
C4017      N4019   1.157       .  T
C4018      N4020   1.157   1_655  T
C4023      C4024   1.416       .  A
C4023      C4028   1.412       .  A
C4024      C4025   1.412       .  A
C4024      C4029   1.449       .  S
C4025      C4026   1.413       .  A
C4025      C4032   1.446       .  S
C4026      C4027   1.417       .  A
C4027      C4028   1.417       .  A
C4027      C4030   1.447       .  S
C4028      C4031   1.448       .  S
C4029      N4036   1.157       .  T
C4030      N4035   1.157       .  T
C4031      N4033   1.157       .  T
C4032      N4034   1.158       .  T
C4037      C4038   1.397       .  A
C4037      C4042   1.404       .  A
C4038      C4039   1.406       .  A
C4038      C4043   1.448       .  S
C4039      C4040   1.420       .  A
C4039      C4046   1.447       .  S
C4040      C4041   1.411       .  A
C4041      C4042   1.400       .  A
C4041      C4044   1.449       .  S
C4042      C4045   1.441       .  S
C4043      N4050   1.157       .  T
C4044      N4049   1.157       .  T
C4045      N4047   1.153       .  T
C4046      N4048   1.156       .  T
C4051      C4052   1.422       .  A
C4051      C4056   1.422       .  A
C4052      C4053   1.454       .  A
C4052      C4057   1.447       .  S
C4053      C4054   1.445       .  A
C4053      C4060   1.448       .  S
C4054      C4055   1.440       .  A
C4055      C4056   1.448       .  A
C4055      C4058   1.442       .  S
C4056      C4059   1.450       .  S
C4057      N4064   1.157       .  T
C4058      N4063   1.157       .  T
C4059      N4061   1.157       .  T
C4060      N4062   1.157       .  T
C4065      C4066   1.422       .  A
C4065      C4070   1.419       .  A
C4066      C4067   1.428       .  A
C4066      C4071   1.448       .  S
C4067      C4068   1.419       .  A
C4067      C4074   1.449       .  S
C4068      C4069   1.426       .  A
C4069      C4070   1.420       .  A
C4069      C4072   1.453       .  S
C4070      C4073   1.451       .  S
C4071      N4078   1.157       .  T
C4072      N4077   1.158       .  T
C4073      N4075   1.158       .  T
C4074      N4076   1.157       .  T
C4079      C4080   1.410       .  A
C4079      C4084   1.413       .  A
C4080      C4081   1.395       .  A
C4080      C4085   1.447       .  S
C4081      C4082   1.401       .  A
C4081      C4088   1.449       .  S
C4082      C4083   1.408       .  A
C4083      C4084   1.405       .  A
C4083      C4086   1.453       .  S
C4084      C4087   1.447       .  S
C4085      N4092   1.157       .  T
C4086      N4091   1.157       .  T
C4087      N4089   1.157       .  T
C4088      N4090   1.155       .  T
C4093      C4094   1.437       .  A
C4093      C4098   1.430       .  A
C4094      C4095   1.454       .  A
C4094      C4099   1.447       .  S
C4095      C4096   1.429       .  A
C4095      C4102   1.448       .  S
C4096      C4097   1.424       .  A
C4097      C4098   1.439       .  A
C4097      C4100   1.445       .  S
C4098      C4101   1.446       .  S
C4099      N4106   1.158       .  T
C4100      N4105   1.156       .  T
C4101      N4103   1.156       .  T
C4102      N4104   1.157       .  T
C4107      C4108   1.414       .  A
C4107      C4112   1.407       .  A
C4108      C4109   1.434       .  A
C4108      C4113   1.448       .  S
C4109      C4110   1.428       .  A
C4109      C4116   1.445       .  S
C4110      C4111   1.429       .  A
C4111      C4112   1.428       .  A
C4111      C4114   1.447       .  S
C4112      C4115   1.444       .  S
C4113      N4120   1.157       .  T
C4114      N4119   1.157       .  T
C4115      N4117   1.156       .  T
C4116      N4118   1.156       .  T
C4121      C4122   1.412       .  A
C4121      C4126   1.417       .  A
C4122      C4123   1.401       .  A
C4122      C4127   1.449       .  S
C4123      C4124   1.409       .  A
C4123      C4130   1.455       .  S
C4124      C4125   1.406       .  A
C4125      C4126   1.411       .  A
C4125      C4128   1.450       .  S
C4126      C4129   1.450       .  S
C4127      N4134   1.156       .  T
C4128      N4133   1.157       .  T
C4129      N4131   1.157       .  T
C4130      N4132   1.157       .  T
C4135      C4136   1.411       .  A
C4135      C4140   1.415       .  A
C4136      C4137   1.402       .  A
C4136      C4141   1.447       .  S
C4137      C4138   1.405       .  A
C4137      C4144   1.451       .  S
C4138      C4139   1.403       .  A
C4139      C4140   1.395       .  A
C4139      C4142   1.458       .  S
C4140      C4143   1.442       .  S
C4141      N4148   1.157       .  T
C4142      N4147   1.157       .  T
C4143      N4145   1.156       .  T
C4144      N4146   1.157       .  T
C4149      C4150   1.416       .  A
C4149      C4154   1.413       .  A
C4150      C4151   1.401       .  A
C4150      C4155   1.446       .  S
C4151      C4152   1.403       .  A
C4151      C4158   1.455       .  S
C4152      C4153   1.405       .  A
C4153      C4154   1.402       .  A
C4153      C4156   1.454       .  S
C4154      C4157   1.446       .  S
C4155      N4162   1.156       .  T
C4156      N4161   1.157       .  T
C4157      N4159   1.157       .  T
C4158      N4160   1.157       .  T
C4163      C4164   1.418       .  A
C4163      C4168   1.416       .  A
C4164      C4165   1.412       .  A
C4164      C4169   1.449       .  S
C4165      C4166   1.410       .  A
C4165      C4172   1.447       .  S
C4166      C4167   1.394       .  A
C4167      C4168   1.402       .  A
C4167      C4170   1.442       .  S
C4168      C4171   1.447       .  S
C4169      N4176   1.157       .  T
C4170      N4175   1.156       .  T
C4171      N4173   1.157       .  T
C4172      N4174   1.158       .  T
C4177      C4178   1.409       .  A
C4177      C4182   1.405       .  A
C4178      C4179   1.412       .  A
C4178      C4183   1.448       .  S
C4179      C4180   1.415       .  A
C4179      C4186   1.448       .  S
C4180      C4181   1.413       .  A
C4181      C4182   1.405       .  A
C4181      C4184   1.445       .  S
C4182      C4185   1.446       .  S
C4183      N4190   1.157       .  T
C4184      N4189   1.156       .  T
C4185      N4187   1.155       .  T
C4186      N4188   1.157       .  T
C4191      C4192   1.411       .  A
C4191      C4196   1.407       .  A
C4192      C4193   1.400       .  A
C4192      C4197   1.443       .  S
C4193      C4194   1.417       .  A
C4193      C4200   1.456       .  S
C4194      C4195   1.418       .  A
C4195      C4196   1.403       .  A
C4195      C4198   1.452       .  S
C4196      C4199   1.448       .  S
C4197      N4204   1.154       .  T
C4198      N4203   1.157       .  T
C4199      N4201   1.157       .  T
C4200      N4202   1.158       .  T
C4205      C4206   1.412       .  A
C4205      C4210   1.413       .  A
C4206      C4207   1.419       .  A
C4206      C4211   1.447   1_565  S
C4207      C4208   1.424       .  A
C4207      C4214   1.447   1_565  S
C4208      C4209   1.424       .  A
C4209      C4210   1.421       .  A
C4209      C4212   1.449       .  S
C4210      C4213   1.447       .  S
C4211      N4218   1.156       .  T
C4212      N4217   1.157       .  T
C4213      N4215   1.157       .  T
C4214      N4216   1.157       .  T
C4219      C4220   1.412       .  A
C4219      C4224   1.414       .  A
C4220      C4221   1.404       .  A
C4220      C4225   1.450       .  S
C4221      C4222   1.406       .  A
C4221      C4228   1.446       .  S
C4222      C4223   1.414       .  A
C4223      C4224   1.417       .  A
C4223      C4226   1.450       .  S
C4224      C4227   1.448       .  S
C4225      N4232   1.157       .  T
C4226      N4231   1.157       .  T
C4227      N4229   1.157       .  T
C4228      N4230   1.156       .  T
C4233      C4234   1.417       .  A
C4233      C4238   1.440       .  A
C4234      C4235   1.406       .  A
C4234      C4239   1.438       .  S
C4235      C4236   1.405       .  A
C4235      C4242   1.451       .  S
C4236      C4237   1.406       .  A
C4237      C4238   1.421       .  A
C4237      C4240   1.448       .  S
C4238      C4241   1.451       .  S
C4239      N4246   1.158       .  T
C4240      N4245   1.157       .  T
C4241      N4243   1.158       .  T
C4242      N4244   1.157       .  T
C4247      C4248   1.424       .  A
C4247      C4252   1.419       .  A
C4248      C4249   1.430       .  A
C4248      C4253   1.443       .  S
C4249      C4250   1.416       .  A
C4249      C4256   1.447       .  S
C4250      C4251   1.418       .  A
C4251      C4252   1.426       .  A
C4251      C4254   1.445       .  S
C4252      C4255   1.444       .  S
C4253      N4260   1.156       .  T
C4254      N4259   1.157       .  T
C4255      N4257   1.155       .  T
C4256      N4258   1.157       .  T
C4261      C4262   1.405       .  A
C4261      C4266   1.402       .  A
C4262      C4263   1.398       .  A
C4262      C4267   1.448       .  S
C4263      C4264   1.411       .  A
C4263      C4270   1.447       .  S
C4264      C4265   1.421       .  A
C4265      C4266   1.417       .  A
C4265      C4268   1.443       .  S
C4266      C4269   1.448       .  S
C4267      N4274   1.157       .  T
C4268      N4273   1.156       .  T
C4269      N4271   1.157       .  T
C4270      N4272   1.157       .  T
C4275      C4276   1.445       .  A
C4275      C4280   1.433       .  A
C4276      C4277   1.442       .  A
C4276      C4281   1.448       .  S
C4277      C4278   1.413       .  A
C4277      C4284   1.450       .  S
C4278      C4279   1.414       .  A
C4279      C4280   1.429       .  A
C4279      C4282   1.452       .  S
C4280      C4283   1.440       .  S
C4281      N4288   1.158       .  T
C4282      N4287   1.157       .  T
C4283      N4285   1.154       .  T
C4284      N4286   1.157       .  T
C4289      C4290   1.427   1_565  A
C4289      C4294   1.416       .  A
C4290      C4291   1.419       .  A
C4290      C4295   1.447       .  S
C4291      C4292   1.418   1_545  A
C4291      C4298   1.448       .  S
C4292      C4293   1.410       .  A
C4293      C4294   1.400       .  A
C4293      C4296   1.445       .  S
C4294      C4297   1.449       .  S
C4295      N4302   1.158       .  T
C4296      N4301   1.157       .  T
C4297      N4299   1.157       .  T
C4298      N4300   1.157       .  T
C4303      C4304   1.423       .  A
C4303      C4308   1.421       .  A
C4304      C4305   1.432       .  A
C4304      C4309   1.447       .  S
C4305      C4306   1.428       .  A
C4305      C4312   1.450       .  S
C4306      C4307   1.411       .  A
C4307      C4308   1.414       .  A
C4307      C4310   1.444       .  S
C4308      C4311   1.446       .  S
C4309      N4316   1.157       .  T
C4310      N4315   1.158       .  T
C4311      N4313   1.157       .  T
C4312      N4314   1.157       .  T
C4317      C4318   1.404       .  A
C4317      C4322   1.400       .  A
C4318      C4319   1.406       .  A
C4318      C4323   1.452       .  S
C4319      C4320   1.420       .  A
C4319      C4326   1.448       .  S
C4320      C4321   1.419       .  A
C4321      C4322   1.406       .  A
C4321      C4324   1.446       .  S
C4322      C4325   1.450       .  S
C4323      N4330   1.157       .  T
C4324      N4329   1.156   1_554  T
C4325      N4327   1.157       .  T
C4326      N4328   1.157       .  T
C4331      C4332   1.408       .  A
C4331      C4336   1.414       .  A
C4332      C4333   1.406       .  A
C4332      C4337   1.450       .  S
C4333      C4334   1.416       .  A
C4333      C4340   1.443       .  S
C4334      C4335   1.423       .  A
C4335      C4336   1.420       .  A
C4335      C4338   1.451       .  S
C4336      C4339   1.449       .  S
C4337      N4344   1.157       .  T
C4338      N4343   1.157       .  T
C4339      N4341   1.157       .  T
C4340      N4342   1.154       .  T
C4345      C4346   1.417       .  A
C4345      C4350   1.416       .  A
C4346      C4347   1.412       .  A
C4346      C4351   1.446       .  S
C4347      C4348   1.408       .  A
C4347      C4354   1.447       .  S
C4348      C4349   1.408       .  A
C4349      C4350   1.411       .  A
C4349      C4352   1.448       .  S
C4350      C4353   1.446       .  S
C4351      N4358   1.157       .  T
C4352      N4357   1.156       .  T
C4353      N4355   1.157       .  T
C4354      N4356   1.157       .  T
C4359      C4360   1.419       .  A
C4359      C4364   1.412       .  A
C4360      C4361   1.430       .  A
C4360      C4365   1.448       .  S
C4361      C4362   1.424       .  A
C4361      C4368   1.446       .  S
C4362      C4363   1.437       .  A
C4363      C4364   1.431       .  A
C4363      C4366   1.446       .  S
C4364      C4367   1.451       .  S
C4365      N4372   1.156       .  T
C4366      N4371   1.156   1_565  T
C4367      N4369   1.157       .  T
C4368      N4370   1.157       .  T
C4373      C4374   1.411       .  A
C4373      C4378   1.416       .  A
C4374      C4375   1.424       .  A
C4374      C4379   1.453       .  S
C4375      C4376   1.435       .  A
C4375      C4382   1.445       .  S
C4376      C4377   1.427       .  A
C4377      C4378   1.424       .  A
C4377      C4380   1.449       .  S
C4378      C4381   1.449       .  S
C4379      N4386   1.157       .  T
C4380      N4385   1.158       .  T
C4381      N4383   1.157       .  T
C4382      N4384   1.157       .  T
C4387      C4388   1.418       .  A
C4387      C4392   1.412       .  A
C4388      C4389   1.415       .  A
C4388      C4393   1.449       .  S
C4389      C4390   1.418       .  A
C4389      C4396   1.451       .  S
C4390      C4391   1.426       .  A
C4391      C4392   1.410       .  A
C4391      C4394   1.455       .  S
C4392      C4395   1.447       .  S
C4393      N4400   1.157       .  T
C4394      N4399   1.158       .  T
C4395      N4397   1.156       .  T
C4396      N4398   1.158       .  T
C4401      C4402   1.417       .  A
C4401      C4406   1.409       .  A
C4402      C4403   1.424       .  A
C4402      C4407   1.448       .  S
C4403      C4404   1.423       .  A
C4403      C4410   1.451       .  S
C4404      C4405   1.436       .  A
C4405      C4406   1.419       .  A
C4405      C4408   1.452       .  S
C4406      C4409   1.452       .  S
C4407      N4414   1.156       .  T
C4408      N4413   1.158       .  T
C4409      N4411   1.157       .  T
C4410      N4412   1.158       .  T
C4415      C4416   1.396       .  A
C4415      C4420   1.387       .  A
C4416      C4417   1.406       .  A
C4416      C4421   1.443       .  S
C4417      C4418   1.435       .  A
C4417      C4424   1.450       .  S
C4418      C4419   1.426       .  A
C4419      C4420   1.394       .  A
C4419      C4422   1.441       .  S
C4420      C4423   1.440       .  S
C4421      N4428   1.157       .  T
C4422      N4427   1.157       .  T
C4423      N4425   1.155       .  T
C4424      N4426   1.158       .  T
C4429      C4430   1.409       .  A
C4429      C4434   1.406       .  A
C4430      C4431   1.416       .  A
C4430      C4435   1.448       .  S
C4431      C4432   1.418       .  A
C4431      C4438   1.451       .  S
C4432      C4433   1.418       .  A
C4433      C4434   1.414       .  A
C4433      C4436   1.448       .  S
C4434      C4437   1.449       .  S
C4435      N4442   1.157       .  T
C4436      N4441   1.157       .  T
C4437      N4439   1.157       .  T
C4438      N4440   1.157       .  T
C4443      C4444   1.415       .  A
C4443      C4448   1.414       .  A
C4444      C4445   1.428       .  A
C4444      C4449   1.449       .  S
C4445      C4446   1.429       .  A
C4445      C4452   1.445       .  S
C4446      C4447   1.428       .  A
C4447      C4448   1.432       .  A
C4447      C4450   1.445       .  S
C4448      C4451   1.449       .  S
C4449      N4456   1.156       .  T
C4450      N4455   1.157       .  T
C4451      N4453   1.157       .  T
C4452      N4454   1.158       .  T
C4457      C4458   1.405       .  A
C4457      C4462   1.410       .  A
C4458      C4459   1.403       .  A
C4458      C4463   1.447       .  S
C4459      C4460   1.411       .  A
C4459      C4466   1.449       .  S
C4460      C4461   1.409       .  A
C4461      C4462   1.404       .  A
C4461      C4464   1.452       .  S
C4462      C4465   1.445       .  S
C4463      N4470   1.157       .  T
C4464      N4469   1.157       .  T
C4465      N4467   1.158       .  T
C4466      N4468   1.157       .  T
C4471      C4472   1.419       .  A
C4471      C4476   1.422       .  A
C4472      C4473   1.426       .  A
C4472      C4477   1.447       .  S
C4473      C4474   1.421       .  A
C4473      C4480   1.445       .  S
C4474      C4475   1.402       .  A
C4475      C4476   1.406       .  A
C4475      C4478   1.450       .  S
C4476      C4479   1.442       .  S
C4477      N4484   1.158       .  T
C4478      N4483   1.157       .  T
C4479      N4481   1.155       .  T
C4480      N4482   1.157       .  T
C4485      C4486   1.432       .  A
C4485      C4490   1.429       .  A
C4486      C4487   1.419       .  A
C4486      C4491   1.451       .  S
C4487      C4488   1.413       .  A
C4487      C4494   1.444       .  S
C4488      C4489   1.417       .  A
C4489      C4490   1.433       .  A
C4489      C4492   1.446       .  S
C4490      C4493   1.446       .  S
C4491      N4498   1.158       .  T
C4492      N4497   1.157       .  T
C4493      N4495   1.157       .  T
C4494      N4496   1.157       .  T
C4499      C4500   1.401       .  A
C4499      C4504   1.404       .  A
C4500      C4501   1.405       .  A
C4500      C4505   1.450       .  S
C4501      C4502   1.418       .  A
C4501      C4508   1.447       .  S
C4502      C4503   1.419       .  A
C4503      C4504   1.413       .  A
C4503      C4506   1.448       .  S
C4504      C4507   1.449       .  S
C4505      N4512   1.157       .  T
C4506      N4511   1.157       .  T
C4507      N4509   1.157       .  T
C4508      N4510   1.157       .  T
C4513      C4514   1.409       .  A
C4513      C4518   1.411       .  A
C4514      C4515   1.403       .  A
C4514      C4519   1.450       .  S
C4515      C4516   1.411       .  A
C4515      C4522   1.449       .  S
C4516      C4517   1.417       .  A
C4517      C4518   1.410       .  A
C4517      C4520   1.447       .  S
C4518      C4521   1.451       .  S
C4519      N4526   1.156       .  T
C4520      N4525   1.157       .  T
C4521      N4523   1.156       .  T
C4522      N4524   1.157       .  T
C4527      C4528   1.406       .  A
C4527      C4532   1.406       .  A
C4528      C4529   1.400       .  A
C4528      C4533   1.453       .  S
C4529      C4530   1.414       .  A
C4529      C4536   1.450       .  S
C4530      C4531   1.411       .  A
C4531      C4532   1.405       .  A
C4531      C4534   1.447       .  S
C4532      C4535   1.448       .  S
C4533      N4540   1.157       .  T
C4534      N4539   1.157       .  T
C4535      N4537   1.157       .  T
C4536      N4538   1.157       .  T
C4541      C4542   1.421       .  A
C4541      C4546   1.418       .  A
C4542      C4543   1.410       .  A
C4542      C4547   1.446       .  S
C4543      C4544   1.404       .  A
C4543      C4550   1.451       .  S
C4544      C4545   1.401       .  A
C4545      C4546   1.408       .  A
C4545      C4548   1.449       .  S
C4546      C4549   1.448       .  S
C4547      N4554   1.157       .  T
C4548      N4553   1.157       .  T
C4549      N4551   1.157       .  T
C4550      N4552   1.158       .  T
C4555      C4556   1.419       .  A
C4555      C4560   1.418       .  A
C4556      C4557   1.404       .  A
C4556      C4561   1.454       .  S
C4557      C4558   1.412       .  A
C4557      C4564   1.448       .  S
C4558      C4559   1.410       .  A
C4559      C4560   1.408       .  A
C4559      C4562   1.449       .  S
C4560      C4563   1.450   1_545  S
C4561      N4568   1.158       .  T
C4562      N4567   1.157       .  T
C4563      N4565   1.157       .  T
C4564      N4566   1.156       .  T
C4569      C4570   1.415       .  A
C4569      C4574   1.410       .  A
C4570      C4571   1.411       .  A
C4570      C4575   1.447       .  S
C4571      C4572   1.409       .  A
C4571      C4578   1.451       .  S
C4572      C4573   1.414       .  A
C4573      C4574   1.400       .  A
C4573      C4576   1.453       .  S
C4574      C4577   1.450       .  S
C4575      N4582   1.157       .  T
C4576      N4581   1.158       .  T
C4577      N4579   1.157       .  T
C4578      N4580   1.157   1_545  T
C4583      C4584   1.418       .  A
C4583      C4588   1.414       .  A
C4584      C4585   1.411       .  A
C4584      C4589   1.451       .  S
C4585      C4586   1.407       .  A
C4585      C4592   1.450       .  S
C4586      C4587   1.411       .  A
C4587      C4588   1.410       .  A
C4587      C4590   1.451       .  S
C4588      C4591   1.448       .  S
C4589      N4596   1.157       .  T
C4590      N4595   1.157       .  T
C4591      N4593   1.157       .  T
C4592      N4594   1.157       .  T
C4597      C4598   1.403       .  A
C4597      C4602   1.415       .  A
C4598      C4599   1.397       .  A
C4598      C4603   1.444       .  S
C4599      C4600   1.404       .  A
C4599      C4606   1.453       .  S
C4600      C4601   1.400       .  A
C4601      C4602   1.403       .  A
C4601      C4604   1.449       .  S
C4602      C4605   1.448       .  S
C4603      N4610   1.157       .  T
C4604      N4609   1.158       .  T
C4605      N4607   1.157       .  T
C4606      N4608   1.157       .  T
C4611      C4612   1.397       .  A
C4611      C4616   1.399       .  A
C4612      C4613   1.397       .  A
C4612      C4617   1.452       .  S
C4613      C4614   1.420       .  A
C4613      C4620   1.445       .  S
C4614      C4615   1.422       .  A
C4615      C4616   1.411       .  A
C4615      C4618   1.447       .  S
C4616      C4619   1.448       .  S
C4617      N4624   1.158       .  T
C4618      N4623   1.156       .  T
C4619      N4621   1.157       .  T
C4620      N4622   1.157       .  T
C4625      C4626   1.420       .  A
C4625      C4630   1.407       .  A
C4626      C4627   1.430       .  A
C4626      C4631   1.448       .  S
C4627      C4628   1.424       .  A
C4627      C4634   1.447       .  S
C4628      C4629   1.411       .  A
C4629      C4630   1.406       .  A
C4629      C4632   1.443       .  S
C4630      C4633   1.445       .  S
C4631      N4638   1.157       .  T
C4632      N4637   1.157       .  T
C4633      N4635   1.157       .  T
C4634      N4636   1.157       .  T
C4639      C4640   1.406       .  A
C4639      C4644   1.404       .  A
C4640      C4641   1.398       .  A
C4640      C4645   1.448       .  S
C4641      C4642   1.410       .  A
C4641      C4648   1.449       .  S
C4642      C4643   1.413       .  A
C4643      C4644   1.401       .  A
C4643      C4646   1.445       .  S
C4644      C4647   1.448       .  S
C4645      N4652   1.155       .  T
C4646      N4651   1.157       .  T
C4647      N4649   1.157       .  T
C4648      N4650   1.156       .  T
