geometry optimzed in LAMMPS
_audit_creation_date              2020-11-30 
_audit_creation_method            'lammps2cif' 
_symmetry_space_group_name_H-M    'P1' 
_symmetry_Int_Tables_number       1 
_symmetry_cell_setting            triclinic 
loop_ 
_symmetry_equiv_pos_as_xyz 
  x,y,z 
_cell_length_a                    50.44234885 
_cell_length_b                    50.788410730809 
_cell_length_c                    50.30759432383301 
_cell_angle_alpha                 90.02533195775786 
_cell_angle_beta                  89.9895096444256 
_cell_angle_gamma                 90.0892956685742 
loop_ 
_atom_site_label 
_atom_site_type_symbol 
_atom_site_fract_x 
_atom_site_fract_y 
_atom_site_fract_z 
_atom_site_charge 
N1          N  0.76468374  0.48518955  0.74783581    -0.36400
N2          N  0.80378723  0.48878287  0.70599057    -0.57000
N3          N  0.84621480  0.48648130  0.74521746    -0.36400
N4          N  0.80674696  0.48477133  0.78715164    -0.57000
C5          C  0.74903153  0.49194826  0.72712331     0.27200
C6          C  0.75065024  0.48962249  0.77027046     0.27200
C7          C  0.86002337  0.49362055  0.72333499     0.27200
C8          C  0.86156131  0.49182741  0.76660563     0.27200
C9          C  0.78185152  0.48502117  0.69100606     0.35800
C10         C  0.82476467  0.48540715  0.68965968     0.35800
C11         C  0.78592326  0.47967911  0.80323540     0.35800
C12         C  0.82875571  0.48050763  0.80177825     0.35800
C13         C  0.72468624  0.50058168  0.73652799    -0.21700
C14         C  0.72568229  0.49902363  0.76377978    -0.21700
C15         C  0.88471356  0.50310083  0.73083892    -0.21700
C16         C  0.88568065  0.50197643  0.75820113    -0.21700
C17         C  0.78889802  0.47922605  0.66504973    -0.22700
C18         C  0.81608905  0.47958381  0.66415571    -0.22700
C19         C  0.79467243  0.47215333  0.82818874    -0.22700
C20         C  0.82182703  0.47278852  0.82732216    -0.22700
C21         C  0.75562282  0.48909342  0.69995531    -0.18100
C22         C  0.75916825  0.48379434  0.79633524    -0.18100
C23         C  0.85481704  0.48634428  0.79332400    -0.18100
C24         C  0.85146115  0.49015416  0.69679414    -0.18100
H25         H  0.70783291  0.50709344  0.72496799     0.14800
H26         H  0.70975018  0.50404065  0.77727353     0.14800
H27         H  0.90047872  0.50988567  0.71793924     0.14800
H28         H  0.90233404  0.50772727  0.77047336     0.14800
H29         H  0.77580960  0.47572757  0.64837049     0.13100
H30         H  0.82807314  0.47644943  0.64659437     0.13100
H31         H  0.78274273  0.46732298  0.84539961     0.13100
H32         H  0.83490319  0.46863911  0.84384090     0.13100
H33         H  0.78260627  0.47521065  0.74666247     0.26400
H34         H  0.82854418  0.47594749  0.74534781     0.26400
N35         N  0.50704232  0.75030079  0.76670125    -0.36400
N36         N  0.50730604  0.79101740  0.80674423    -0.57000
N37         N  0.51052006  0.75102687  0.84851603    -0.36400
N38         N  0.50813842  0.71029592  0.80807569    -0.57000
C39         C  0.49992647  0.77125888  0.75174370     0.27200
C40         C  0.50154121  0.72844082  0.75241132     0.27200
C41         C  0.50533021  0.77279045  0.86315017     0.27200
C42         C  0.50494249  0.72971434  0.86376459     0.27200
C43         C  0.50976303  0.80626210  0.78480242     0.34200
C44         C  0.51270377  0.80662353  0.82782957     0.35800
C45         C  0.51249826  0.69487860  0.78661594     0.35800
C46         C  0.51317001  0.69522373  0.82960907     0.35800
C47         C  0.48984390  0.76257476  0.72761687    -0.21700
C48         C  0.49096565  0.73552034  0.72800501    -0.21700
C49         C  0.49683560  0.76522528  0.88824989    -0.21700
C50         C  0.49655210  0.73802862  0.88861561    -0.21700
C51         C  0.51667198  0.83167872  0.79192528    -0.22700
C52         C  0.51850911  0.83194482  0.81915413    -0.22700
C53         C  0.52022839  0.66992165  0.79450283    -0.22700
C54         C  0.52052896  0.67009093  0.82173952    -0.22700
C55         C  0.50389290  0.79798101  0.75861793    -0.18100
C56         C  0.50768379  0.70241094  0.76006612    -0.18100
C57         C  0.50892910  0.70309293  0.85623088    -0.18100
C58         C  0.50950792  0.79917547  0.85480806    -0.18100
H59         H  0.48277528  0.77449223  0.71125975     0.14800
H60         H  0.48496288  0.72253883  0.71202217     0.14800
H61         H  0.49154873  0.77796141  0.90466105     0.14800
H62         H  0.49107002  0.72578168  0.90534356     0.14800
H63         H  0.51957252  0.84839470  0.77890238     0.13100
H64         H  0.52296478  0.84905650  0.83117538     0.13100
H65         H  0.52471235  0.65319031  0.78196134     0.13100
H66         H  0.52534905  0.65348920  0.83427960     0.13100
H67         H  0.51805281  0.75085192  0.78414644     0.26400
H68         H  0.52001830  0.75081573  0.83018252     0.26400
N69         N  0.75140560  0.76666710  0.49912467    -0.36400
N70         N  0.71121061  0.80732546  0.50254443    -0.57000
N71         N  0.75250990  0.84807620  0.49994797    -0.36400
N72         N  0.79293569  0.80716284  0.49972730    -0.57000
C73         C  0.72997536  0.75154631  0.50472685     0.27200
C74         C  0.77313848  0.75143117  0.50219488     0.27200
C75         C  0.73103194  0.86334664  0.50459896     0.27200
C76         C  0.77440649  0.86308309  0.50392445     0.27200
C77         C  0.69509592  0.78608316  0.50036515     0.35800
C78         C  0.69561239  0.82879046  0.50003100     0.35800
C79         C  0.80809055  0.78573626  0.49490123     0.35800
C80         C  0.80872041  0.82842263  0.49606065     0.35800
C81         C  0.73821577  0.72620912  0.51079460    -0.21700
C82         C  0.76540719  0.72614679  0.50924738    -0.21700
C83         C  0.73936766  0.88860865  0.51100647    -0.21700
C84         C  0.76670815  0.88841121  0.51069125    -0.21700
C85         C  0.66911410  0.79407395  0.49680223    -0.22700
C86         C  0.66942361  0.82105513  0.49650710    -0.22700
C87         C  0.83366907  0.79339138  0.48842681    -0.22700
C88         C  0.83409457  0.82037513  0.48923682    -0.22700
C89         C  0.70312130  0.75958689  0.50348683    -0.18100
C90         C  0.79972858  0.75927692  0.49773029    -0.18100
C91         C  0.80105760  0.85500285  0.49996557    -0.18100
C92         C  0.70411420  0.85531185  0.50263722    -0.18100
H93         H  0.72594496  0.70940202  0.51570197     0.14800
H94         H  0.77803864  0.70931251  0.51284435     0.14800
H95         H  0.72702694  0.90544859  0.51549198     0.14800
H96         H  0.77946318  0.90511715  0.51463619     0.14800
H97         H  0.65167683  0.78177361  0.49492074     0.13100
H98         H  0.65218045  0.83352519  0.49434129     0.13100
H99         H  0.85037144  0.78083792  0.48381495     0.13100
H100        H  0.85118676  0.83264605  0.48525629     0.13100
H101        H  0.75119517  0.78542927  0.49106697     0.26400
H102        H  0.75211535  0.82928208  0.49197365     0.26400
O103        O  0.60592753  0.46982310  0.94679301    -0.78300
C104        C  0.56043858  0.48382833  0.02264733     0.82800
O105        O  0.55536142  0.39199485  0.97005335    -0.79400
O106        O  0.48367017  0.45984473  0.98378598    -0.80900
O107        O  0.52832506  0.50722539  0.91747996    -0.80700
O108        O  0.58387517  0.47412401  0.90870214    -0.79300
Zn109      Zn  0.57816676  0.45540128  0.97198303     1.55700
O110        O  0.51396003  0.51520425  0.95842976    -0.80700
Cd111      Cd  0.54479977  0.47011518  0.91948141     1.59700
Cd112      Cd  0.52899312  0.41927252  0.95408274     1.59600
O113        O  0.52793665  0.44494421  0.89176824    -0.80700
O114        O  0.54326068  0.45589104  0.95619106    -1.91200
Cd115      Cd  0.51960528  0.47916234  0.97775795     1.59900
O116        O  0.52273186  0.40800040  0.91489678    -0.80600
O117        O  0.53664978  0.48693588  0.01466914    -0.79300
C118        C  0.57905563  0.39526810  0.97826569     0.83200
C119        C  0.60546595  0.47412472  0.92182140     0.82900
O120        O  0.57802813  0.47371107  0.00755159    -0.78300
C121        C  0.51810798  0.52275057  0.93457912     0.83700
O122        O  0.58933160  0.41816102  0.97942180    -0.78300
C123        C  0.52243157  0.42047419  0.89290274     0.83800
C124        C  0.47678868  0.43568791  0.98163537     0.84200
O125        O  0.49238591  0.41820045  0.97232413    -0.80800
O126        O  0.55256557  0.60701771  0.53143508    -0.78300
C127        C  0.47530760  0.56554318  0.51420781     0.82800
O128        O  0.52418136  0.55249187  0.60718925    -0.79400
O129        O  0.50946862  0.48559935  0.53404249    -0.80900
O130        O  0.57938569  0.52933681  0.49067202    -0.80700
O131        O  0.58922553  0.58362016  0.52578328    -0.79300
Zn132      Zn  0.52600411  0.57950689  0.54488385     1.55700
O133        O  0.53798290  0.51699058  0.48138327    -0.80700
Cd134      Cd  0.57694112  0.54498055  0.52883105     1.59700
Cd135      Cd  0.53903895  0.52734080  0.57809401     1.59600
O136        O  0.60296645  0.52689002  0.55515911    -0.80700
O137        O  0.53975589  0.54399067  0.54220755    -1.91200
Cd138      Cd  0.51780116  0.52231327  0.51723418     1.59900
O139        O  0.57701681  0.51803349  0.58982663    -0.80600
O140        O  0.48223859  0.54177209  0.50968321    -0.79300
C141        C  0.51820470  0.57679853  0.60558909     0.83200
C142        C  0.57735586  0.60575359  0.52644791     0.82900
O143        O  0.49066910  0.58154963  0.52625899    -0.78300
C144        C  0.56208196  0.52049748  0.47439624     0.83700
O145        O  0.51868266  0.58858424  0.58322350    -0.78300
C146        C  0.59976318  0.51838020  0.57880490     0.83800
C147        C  0.51025183  0.47733669  0.55799049     0.84200
O148        O  0.51893305  0.49192952  0.57674950    -0.80800
O149        O  0.45104452  0.89316794  0.52477431    -0.78300
C150        C  0.52637311  0.93884765  0.51741631     0.82800
O151        O  0.46876216  0.94455919  0.60563226    -0.79400
O152        O  0.48424427  0.01595964  0.53801156    -0.80900
O153        O  0.42192451  0.97272759  0.48783551    -0.80700
O154        O  0.41379747  0.91467155  0.51531154    -0.79300
Zn155      Zn  0.47402158  0.92097692  0.54218343     1.55700
O156        O  0.46371085  0.98598843  0.48199338    -0.80700
Cd157      Cd  0.42217402  0.95336226  0.52395822     1.59700
Cd158      Cd  0.45421455  0.97052931  0.57714542     1.59600
O159        O  0.39209713  0.96663051  0.54912520    -0.80700
O160        O  0.45804372  0.95568095  0.54057486    -1.91200
Cd161      Cd  0.48107763  0.97952775  0.51900567     1.59900
O162        O  0.41466425  0.97533191  0.58613545    -0.80600
O163        O  0.51854714  0.96251921  0.51387197    -0.79300
C164        C  0.47646613  0.92076831  0.60308456     0.83200
C165        C  0.42732838  0.89355127  0.51602812     0.82900
O166        O  0.51083067  0.92116436  0.52645619    -0.78300
C167        C  0.43996464  0.98326359  0.47357784     0.83700
O168        O  0.47839363  0.91008304  0.58025322    -0.78300
C169        C  0.39288836  0.97380365  0.57343784     0.83800
C170        C  0.47943527  0.02378176  0.56167459     0.84200
O171        O  0.47037397  0.00821292  0.57944108    -0.80800
N172        N  0.50106434  0.25166954  0.72813732    -0.36400
N173        N  0.49858082  0.29243995  0.68767658    -0.57000
N174        N  0.49633523  0.25206473  0.64627536    -0.36400
N175        N  0.49602921  0.21153017  0.68721532    -0.57000
C176        C  0.49716735  0.27319389  0.74348416     0.27200
C177        C  0.49549805  0.23033254  0.74325042     0.27200
C178        C  0.49114286  0.27381318  0.63162552     0.27200
C179        C  0.49016693  0.23075620  0.63127318     0.27200
C180        C  0.50418269  0.30767292  0.70902753     0.35800
C181        C  0.50163031  0.30789951  0.66602205     0.35800
C182        C  0.50056212  0.19586089  0.70845726     0.35800
C183        C  0.49826417  0.19602686  0.66549461     0.35800
C184        C  0.48935725  0.26544550  0.76873201    -0.21700
C185        C  0.48823135  0.23839274  0.76856294    -0.21700
C186        C  0.48199682  0.26622471  0.60676892    -0.21700
C187        C  0.48140902  0.23905670  0.60654125    -0.21700
C188        C  0.51061799  0.33295285  0.70096229    -0.22700
C189        C  0.50890292  0.33314750  0.67375306    -0.22700
C190        C  0.50558729  0.17032638  0.70024242    -0.22700
C191        C  0.50404775  0.17038940  0.67306922    -0.22700
C192        C  0.50193667  0.29955862  0.73579868    -0.18100
C193        C  0.49824159  0.20376069  0.73526714    -0.18100
C194        C  0.49317990  0.20406569  0.63904052    -0.18100
C195        C  0.49611393  0.30019389  0.63951017    -0.18100
H196        H  0.48505790  0.27798312  0.78559090     0.14800
H197        H  0.48291461  0.22605547  0.78527697     0.14800
H198        H  0.47655576  0.27892889  0.59039382     0.14800
H199        H  0.47528783  0.22680662  0.59003042     0.14800
H200        H  0.51565942  0.34962015  0.71339863     0.13100
H201        H  0.51233043  0.35008789  0.66116491     0.13100
H202        H  0.50954772  0.15331615  0.71256240     0.13100
H203        H  0.50655627  0.15334991  0.66040150     0.13100
H204        H  0.50996341  0.25145636  0.70952473     0.26400
H205        H  0.50613016  0.25175199  0.66439409     0.26400
O206        O  0.44426959  0.10598002  0.96790557    -0.78300
C207        C  0.52453939  0.06659304  0.97676367     0.82800
O208        O  0.46944855  0.05665820  0.88767291    -0.79400
O209        O  0.49092317  0.98665579  0.95397258    -0.80900
O210        O  0.42410021  0.02406675  0.00558529    -0.80700
O211        O  0.40923070  0.08065986  0.97640701    -0.79300
Zn212      Zn  0.47107061  0.08053908  0.95153737     1.55700
O213        O  0.46652740  0.01299202  0.01119728    -0.80700
Cd214      Cd  0.42237655  0.04284774  0.96916864     1.59700
Cd215      Cd  0.45594649  0.02980164  0.91587820     1.59600
O216        O  0.39446775  0.02494664  0.94439370    -0.80700
O217        O  0.45834895  0.04429963  0.95271158    -1.91200
Cd218      Cd  0.48311072  0.02190365  0.97403912     1.59900
O219        O  0.41692476  0.02179172  0.90649804    -0.80600
O220        O  0.51855243  0.04227321  0.97929472    -0.79300
C221        C  0.47453316  0.08112821  0.89041035     0.83200
C222        C  0.42026917  0.10324907  0.97554768     0.82900
O223        O  0.50780630  0.08344120  0.96818990    -0.78300
C224        C  0.44266567  0.01429820  0.01967301     0.83700
O225        O  0.47527404  0.09193589  0.91326828    -0.78300
C226        C  0.39554957  0.01918391  0.91971015     0.83800
C227        C  0.48688195  0.97901855  0.93008404     0.84200
O228        O  0.47513960  0.99378010  0.91330946    -0.80800
N229        N  0.75285860  0.23469424  0.00126352    -0.36400
N230        N  0.71185329  0.19494585  0.00136282    -0.57000
N231        N  0.75198453  0.15404634  0.00455542    -0.36400
N232        N  0.79323091  0.19422275  0.00306067    -0.57000
C233        C  0.73152206  0.24951593  0.99497692     0.27200
C234        C  0.77468265  0.24898104  0.99522935     0.27200
C235        C  0.73052767  0.13961425  0.99741767     0.27200
C236        C  0.77376948  0.13917083  0.00003230     0.27200
C237        C  0.69648399  0.21645954  0.00476887     0.35800
C238        C  0.69607413  0.17380302  0.00527833     0.35800
C239        C  0.80863091  0.21566428  0.00711650     0.35800
C240        C  0.80799179  0.17312731  0.00991380     0.35800
C241        C  0.73987683  0.27353998  0.98485633    -0.21700
C242        C  0.76714051  0.27318595  0.98498281    -0.21700
C243        C  0.73876658  0.11510574  0.98853949    -0.21700
C244        C  0.76607653  0.11478103  0.99030862    -0.21700
C245        C  0.67079661  0.20899688  0.01098441    -0.22700
C246        C  0.67049562  0.18195048  0.01119947    -0.22700
C247        C  0.83333141  0.20821440  0.01642327    -0.22700
C248        C  0.83297723  0.18124763  0.01813197    -0.22700
C249        C  0.70477707  0.24255628  0.99969938    -0.18100
C250        C  0.80106143  0.24176350  0.00124820    -0.18100
C251        C  0.80014329  0.14663237  0.00618160    -0.18100
C252        C  0.70373282  0.14743529  0.00051991    -0.18100
H253        H  0.72761007  0.28981047  0.97844114     0.14800
H254        H  0.77995689  0.28917794  0.97883442     0.14800
H255        H  0.72636769  0.09898268  0.98190445     0.14800
H256        H  0.77878132  0.09839087  0.98520353     0.14800
H257        H  0.65387715  0.22168837  0.01419323     0.13100
H258        H  0.65325599  0.16970155  0.01463667     0.13100
H259        H  0.84995402  0.22085557  0.02120692     0.13100
H260        H  0.84944513  0.16905723  0.02427095     0.13100
H261        H  0.75253927  0.21740289  0.01227396     0.26400
H262        H  0.75168972  0.17185602  0.01474250     0.26400
N263        N  0.23345649  0.98772488  0.74970554    -0.36400
N264        N  0.19256856  0.99185854  0.70907238    -0.57000
N265        N  0.15176108  0.99322420  0.75009093    -0.36400
N266        N  0.19301746  0.99127670  0.79072081    -0.57000
C267        C  0.24858809  0.99165893  0.72786863     0.27200
C268        C  0.24884895  0.99271949  0.77114711     0.27200
C269        C  0.13686674  0.99909069  0.72846567     0.27200
C270        C  0.13709600  0.99856277  0.77198752     0.27200
C271        C  0.21360127  0.98600844  0.69345476     0.35800
C272        C  0.17080521  0.98951988  0.69355386     0.35800
C273        C  0.21444581  0.98748969  0.80640347     0.35800
C274        C  0.17152695  0.98933836  0.80664014     0.35800
C275        C  0.27402267  0.99875411  0.73547790    -0.21700
C276        C  0.27422080  0.99936370  0.76277596    -0.21700
C277        C  0.11215239  0.00775489  0.73672952    -0.21700
C278        C  0.11229092  0.00741863  0.76417943    -0.21700
C279        C  0.20523396  0.98015689  0.66792888    -0.22700
C280        C  0.17819865  0.98250955  0.66794401    -0.22700
C281        C  0.20657413  0.98330609  0.83244431    -0.22700
C282        C  0.17942895  0.98436160  0.83259494    -0.22700
C283        C  0.24042684  0.98787246  0.70127126    -0.18100
C284        C  0.24105576  0.99013167  0.79805882    -0.18100
C285        C  0.14505334  0.99441370  0.79874266    -0.18100
C286        C  0.14445507  0.99508325  0.70157035    -0.18100
H287        H  0.29075994  0.00296374  0.72269058     0.14800
H288        H  0.29125374  0.00397982  0.77499857     0.14800
H289        H  0.09562290  0.01340957  0.72427813     0.14800
H290        H  0.09588952  0.01282403  0.77692796     0.14800
H291        H  0.21737836  0.97512839  0.65093565     0.13100
H292        H  0.16550103  0.97954623  0.65090953     0.13100
H293        H  0.21906829  0.98036413  0.84967129     0.13100
H294        H  0.16700250  0.98239604  0.85002390     0.13100
H295        H  0.21466657  0.97938135  0.74994305     0.26400
H296        H  0.16980275  0.98348598  0.74991095     0.26400
N297        N  0.01850983  0.74586887  0.23028846    -0.36400
N298        N  0.01638682  0.70702102  0.18769985    -0.57000
N299        N  0.01810752  0.74856925  0.14813650    -0.36400
N300        N  0.01848861  0.78747107  0.19107678    -0.57000
C301        C  0.01096877  0.72423568  0.24406933     0.27200
C302        C  0.01390130  0.76702786  0.24600484     0.27200
C303        C  0.01151969  0.72768407  0.13269556     0.27200
C304        C  0.01183049  0.77070224  0.13451046     0.27200
C305        C  0.01887490  0.69070971  0.20878994     0.35800
C306        C  0.01990931  0.69209647  0.16572891     0.35800
C307        C  0.02331590  0.80216840  0.21300196     0.35800
C308        C  0.02223515  0.80350339  0.16998008     0.35800
C309        C  0.00172824  0.73177107  0.26892330    -0.21700
C310        C  0.00383618  0.75872449  0.27023460    -0.21700
C311        C  0.00143692  0.73668261  0.10872341    -0.21700
C312        C  0.00155543  0.76383478  0.10990858    -0.21700
C313        C  0.02420563  0.66534677  0.20024552    -0.22700
C314        C  0.02477864  0.66617917  0.17299515    -0.22700
C315        C  0.03011769  0.82761539  0.20584516    -0.22700
C316        C  0.02953468  0.82844298  0.17861161    -0.22700
C317        C  0.01340463  0.69779170  0.23539915    -0.18100
C318        C  0.01956587  0.79351425  0.23941976    -0.18100
C319        C  0.01638255  0.79686420  0.14326446    -0.18100
C320        C  0.01546565  0.70082319  0.13935756    -0.18100
H321        H  0.99439408  0.71916307  0.28463829     0.14800
H322        H  0.99844188  0.77078743  0.28711763     0.14800
H323        H  0.99467103  0.72493505  0.09209875     0.14800
H324        H  0.99495096  0.77702182  0.09437590     0.14800
H325        H  0.02649108  0.64788834  0.21235589     0.13100
H326        H  0.02749032  0.64936083  0.16008050     0.13100
H327        H  0.03452710  0.84400297  0.21888419     0.13100
H328        H  0.03344321  0.84563706  0.16656179     0.13100
H329        H  0.02876612  0.74600705  0.21237723     0.26400
H330        H  0.02872321  0.74780861  0.16582182     0.26400
N331        N  0.25333466  0.73763437  0.49263797    -0.36400
N332        N  0.21105330  0.69891324  0.49252194    -0.57000
N333        N  0.24971254  0.65660116  0.49992535    -0.36400
N334        N  0.29217081  0.69584029  0.49704968    -0.57000
C335        C  0.23280819  0.75320176  0.48553630     0.27200
C336        C  0.27587773  0.75130629  0.48796878     0.27200
C337        C  0.22779359  0.64221873  0.49433832     0.27200
C338        C  0.27099478  0.64069758  0.49657862     0.27200
C339        C  0.19606605  0.72099342  0.49276225     0.35800
C340        C  0.19418318  0.67844532  0.49566014     0.35800
C341        C  0.30819647  0.71678829  0.50121437     0.35800
C342        C  0.30630200  0.67433786  0.50387913     0.35800
C343        C  0.24245941  0.77723189  0.47661124    -0.21700
C344        C  0.26962683  0.77592076  0.47787176    -0.21700
C345        C  0.23518647  0.61660230  0.48832495    -0.21700
C346        C  0.26245823  0.61566639  0.48966476    -0.21700
C347        C  0.16953925  0.71446998  0.49570664    -0.22700
C348        C  0.16834531  0.68758686  0.49759213    -0.22700
C349        C  0.33256634  0.70857744  0.51080709    -0.22700
C350        C  0.33145297  0.68165113  0.51226734    -0.22700
C351        C  0.20562035  0.74683146  0.48827476    -0.18100
C352        C  0.30177145  0.74304640  0.49470684    -0.18100
C353        C  0.29786454  0.64809048  0.50002217    -0.18100
C354        C  0.20129712  0.65149580  0.49455116    -0.18100
H355        H  0.23119344  0.79414604  0.47010678     0.14800
H356        H  0.28321018  0.79156522  0.47252003     0.14800
H357        H  0.22229335  0.60035926  0.48307871     0.14800
H358        H  0.27462317  0.59855587  0.48577928     0.14800
H359        H  0.15268077  0.72762022  0.49585074     0.13100
H360        H  0.15038284  0.67606824  0.49959388     0.13100
H361        H  0.34956667  0.72066706  0.51570655     0.13100
H362        H  0.34744721  0.66888730  0.51850499     0.13100
H363        H  0.25194227  0.72014873  0.50317708     0.26400
H364        H  0.25000420  0.67560897  0.50749623     0.26400
N365        N  0.73579293  0.50066407  0.24689508    -0.36400
N366        N  0.69569002  0.50312841  0.28819408    -0.57000
N367        N  0.65434842  0.50530587  0.24776266    -0.36400
N368        N  0.69481184  0.50039140  0.20664530    -0.57000
C369        C  0.75047567  0.49450993  0.26847070     0.27200
C370        C  0.75001966  0.49362675  0.22525966     0.27200
C371        C  0.63935231  0.50182567  0.26981514     0.27200
C372        C  0.63888726  0.49996438  0.22640960     0.27200
C373        C  0.71758750  0.50589206  0.30345727     0.35800
C374        C  0.67472246  0.50850835  0.30399325     0.35800
C375        C  0.71624063  0.50320694  0.19076523     0.35800
C376        C  0.67341491  0.50487444  0.19120082     0.35800
C377        C  0.77432647  0.48349603  0.26046336    -0.21700
C378        C  0.77405223  0.48297392  0.23314187    -0.21700
C379        C  0.61382719  0.49481651  0.26234651    -0.21700
C380        C  0.61357016  0.49352865  0.23496225    -0.21700
C381        C  0.71054102  0.51290680  0.32910494    -0.22700
C382        C  0.68340335  0.51436595  0.32951830    -0.22700
C383        C  0.70848299  0.50939117  0.16512329    -0.22700
C384        C  0.68132990  0.51038120  0.16536667    -0.22700
C385        C  0.74368216  0.50013743  0.29510134    -0.18100
C386        C  0.74255122  0.49810590  0.19860880    -0.18100
C387        C  0.64679227  0.50172891  0.19942487    -0.18100
C388        C  0.64779571  0.50605613  0.29637602    -0.18100
H389        H  0.79037224  0.47676658  0.27301331     0.14800
H390        H  0.78982450  0.47576054  0.22050601     0.14800
H391        H  0.59708364  0.49107060  0.27526160     0.14800
H392        H  0.59662394  0.48857408  0.22274047     0.14800
H393        H  0.72353638  0.51601508  0.34593773     0.13100
H394        H  0.67147990  0.51878405  0.34683076     0.13100
H395        H  0.72103857  0.51232176  0.14792428     0.13100
H396        H  0.66882701  0.51430970  0.14835249     0.13100
H397        H  0.71867331  0.51200661  0.24684568     0.26400
H398        H  0.67325933  0.51334786  0.24723451     0.26400
O399        O  0.89378039  0.53018030  0.44474074    -0.78300
C400        C  0.93713026  0.51769590  0.52060789     0.82800
O401        O  0.94652550  0.60820527  0.46844521    -0.79400
O402        O  0.01614418  0.54259085  0.48412098    -0.80900
O403        O  0.97453685  0.49330594  0.41816200    -0.80700
O404        O  0.91690258  0.52038003  0.40838788    -0.79300
Zn405      Zn  0.92108855  0.54623823  0.46951793     1.55700
O406        O  0.98746753  0.48700036  0.45998251    -0.80700
Cd407      Cd  0.95538179  0.52895278  0.41851110     1.59700
Cd408      Cd  0.97140174  0.58076248  0.45163795     1.59600
O409        O  0.96984730  0.55401294  0.38931396    -0.80700
O410        O  0.95651367  0.54467870  0.45473775    -1.91200
Cd411      Cd  0.98015200  0.52310706  0.47801557     1.59900
O412        O  0.97619888  0.59096914  0.41223336    -0.80600
O413        O  0.96149141  0.51552937  0.51409043    -0.79300
C414        C  0.92256695  0.60606267  0.47613718     0.83200
C415        C  0.89510769  0.52126115  0.42108179     0.82900
O416        O  0.92014801  0.52797693  0.50500328    -0.78300
C417        C  0.98454847  0.47878495  0.43620974     0.83700
O418        O  0.91066518  0.58391961  0.47628892    -0.78300
C419        C  0.97589372  0.57836633  0.39031903     0.83800
C420        C  0.02378678  0.56609117  0.47919576     0.84200
O421        O  0.00849119  0.58298805  0.46851720    -0.80800
O422        O  0.05724381  0.90035346  0.46808326    -0.78300
C423        C  0.97843726  0.94246142  0.48005159     0.82800
O424        O  0.03131900  0.94646051  0.38810118    -0.79400
O425        O  0.01858918  0.02104991  0.45488995    -0.80900
O426        O  0.08244351  0.97787832  0.50367882    -0.80700
O427        O  0.09451574  0.92383223  0.46868670    -0.79300
Zn428      Zn  0.03055249  0.92626972  0.45314260     1.55700
O429        O  0.04091745  0.99036494  0.51156561    -0.80700
Cd430      Cd  0.08153144  0.96212368  0.46558188     1.59700
Cd431      Cd  0.04535399  0.97482013  0.41460619     1.59600
O432        O  0.10789364  0.98062180  0.43961049    -0.80700
O433        O  0.04456409  0.96165360  0.45196257    -1.91200
Cd434      Cd  0.02203437  0.98486893  0.47465497     1.59900
O435        O  0.08381161  0.98364181  0.40284677    -0.80600
O436        O  0.98474072  0.96687635  0.48093019    -0.79300
C437        C  0.02484065  0.92253446  0.39242212     0.83200
C438        C  0.08238822  0.90187150  0.47040412     0.82900
O439        O  0.99509532  0.92532126  0.47193268    -0.78300
C440        C  0.06478965  0.98697403  0.51942465     0.83700
O441        O  0.02397406  0.91332365  0.41595509    -0.78300
C442        C  0.10587642  0.98621536  0.41497083     0.83800
C443        C  0.02042660  0.02748850  0.43033779     0.84200
O444        O  0.02627440  0.01071378  0.41237595    -0.80800
O445        O  0.94778120  0.39656818  0.02283037    -0.78300
C446        C  0.02392480  0.43671677  0.01176896     0.82800
O447        O  0.97263654  0.44877994  0.10274476    -0.79400
O448        O  0.98994321  0.51703986  0.03264986    -0.80900
O449        O  0.92057915  0.47435308  0.98719518    -0.80700
O450        O  0.91033876  0.41889284  0.01860462    -0.79300
Zn451      Zn  0.97223968  0.42301517  0.04042949     1.55700
O452        O  0.96216620  0.48683877  0.97886735    -0.80700
Cd453      Cd  0.92209244  0.45733579  0.02437753     1.59700
Cd454      Cd  0.95854246  0.47478319  0.07445599     1.59600
O455        O  0.89495884  0.47328513  0.05075415    -0.80700
O456        O  0.95893903  0.45864736  0.03839700    -1.91200
Cd457      Cd  0.98178201  0.48063133  0.01467984     1.59900
O458        O  0.92004352  0.48275671  0.08583421    -0.80600
O459        O  0.01700844  0.46042164  0.00676796    -0.79300
C460        C  0.97549810  0.42391600  0.10102804     0.83200
C461        C  0.92311829  0.39731756  0.01751755     0.82900
O462        O  0.00858013  0.42104040  0.02420727    -0.78300
C463        C  0.93820770  0.48340743  0.97144539     0.83700
O464        O  0.97491416  0.41190668  0.07879404    -0.78300
C465        C  0.89743062  0.48139914  0.07460150     0.83800
C466        C  0.98814641  0.52493548  0.05673353     0.84200
O467        O  0.97843480  0.51039664  0.07497406    -0.80800
N468        N  0.27229037  0.99427775  0.24711147    -0.36400
N469        N  0.31359946  0.99799447  0.28765220    -0.57000
N470        N  0.35426466  0.99519520  0.24622615    -0.36400
N471        N  0.31275453  0.99497740  0.20572114    -0.57000
C472        C  0.25735051  0.99942685  0.26886295     0.27200
C473        C  0.25685856  0.99843236  0.22547560     0.27200
C474        C  0.36983702  0.99985739  0.26762618     0.27200
C475        C  0.36928831  0.99876314  0.22421513     0.27200
C476        C  0.29231078  0.99486861  0.30373989     0.35800
C477        C  0.33529857  0.99514528  0.30317050     0.35800
C478        C  0.29110735  0.99160075  0.19021619     0.35800
C479        C  0.33408611  0.99162635  0.18979377     0.35800
C480        C  0.23194187  0.00628122  0.26097408    -0.21700
C481        C  0.23166459  0.00578407  0.23366295    -0.21700
C482        C  0.39528656  0.00590637  0.25912892    -0.21700
C483        C  0.39493255  0.00524767  0.23174766    -0.21700
C484        C  0.30048869  0.99033524  0.32960709    -0.22700
C485        C  0.32766869  0.99055532  0.32927944    -0.22700
C486        C  0.29871603  0.98620043  0.16431531    -0.22700
C487        C  0.32586880  0.98632579  0.16401041    -0.22700
C488        C  0.26552930  0.99704703  0.29571384    -0.18100
C489        C  0.26454215  0.99508636  0.19853806    -0.18100
C490        C  0.36089088  0.99495972  0.19758876    -0.18100
C491        C  0.36194077  0.99801902  0.29461922    -0.18100
H492        H  0.21528206  0.01120560  0.27358878     0.14800
H493        H  0.21473461  0.01028670  0.22127482     0.14800
H494        H  0.41236847  0.01028851  0.27138289     0.14800
H495        H  0.41173106  0.00889676  0.21887063     0.14800
H496        H  0.28815821  0.98726096  0.34694238     0.13100
H497        H  0.34033667  0.98773381  0.34640221     0.13100
H498        H  0.28603133  0.98284133  0.14729284     0.13100
H499        H  0.33811156  0.98318080  0.14663465     0.13100
H500        H  0.29101319  0.98590412  0.24714845     0.26400
H501        H  0.33523596  0.98755580  0.24670342     0.26400
O502        O  0.05396132  0.10578169  0.02709175    -0.78300
C503        C  0.97762419  0.06161705  0.02077933     0.82800
O504        O  0.03315122  0.05640678  0.10822288    -0.79400
O505        O  0.01832602  0.98462374  0.04227529    -0.80900
O506        O  0.08150265  0.02562108  0.99151374    -0.80700
O507        O  0.09124317  0.08384384  0.01889783    -0.79300
Zn508      Zn  0.03034257  0.07917310  0.04495716     1.55700
O509        O  0.03935271  0.01361625  0.98519335    -0.80700
Cd510      Cd  0.08139940  0.04534891  0.02730755     1.59700
Cd511      Cd  0.04884479  0.03078982  0.08052737     1.59600
O512        O  0.11063256  0.03140799  0.05272663    -0.80700
O513        O  0.04548638  0.04435746  0.04367702    -1.91200
Cd514      Cd  0.02226163  0.02048052  0.02235677     1.59900
O515        O  0.08818197  0.02734718  0.09070083    -0.80600
O516        O  0.98512438  0.03788116  0.01714846    -0.79300
C517        C  0.02679951  0.08051573  0.10551249     0.83200
C518        C  0.07796829  0.10515044  0.01920505     0.82900
O519        O  0.99359714  0.07901544  0.02964159    -0.78300
C520        C  0.06326137  0.01574380  0.97706505     0.83700
O521        O  0.02618683  0.09142162  0.08275471    -0.78300
C522        C  0.10982812  0.02729077  0.07770758     0.83800
C523        C  0.02275393  0.97771205  0.06629132     0.84200
O524        O  0.03263020  0.99363110  0.08325671    -0.80800
N525        N  0.00747541  0.25570137  0.26423717    -0.36400
N526        N  0.00457604  0.21485343  0.30513183    -0.57000
N527        N  0.00187269  0.25478860  0.34617915    -0.36400
N528        N  0.00141762  0.29543604  0.30482869    -0.57000
C529        C  0.00381161  0.23399320  0.24912141     0.27200
C530        C  0.00109841  0.27675632  0.24903081     0.27200
C531        C  0.99658765  0.23312827  0.36101741     0.27200
C532        C  0.99519273  0.27608607  0.36087918     0.27200
C533        C  0.01108638  0.19986880  0.28390678     0.35800
C534        C  0.00733723  0.19929700  0.32676025     0.35800
C535        C  0.00547872  0.31131496  0.28363885     0.35800
C536        C  0.00351079  0.31085013  0.32658337     0.35800
C537        C  0.99551933  0.24131814  0.22390792    -0.21700
C538        C  0.99369060  0.26831266  0.22388501    -0.21700
C539        C  0.98693005  0.24077994  0.38563471    -0.21700
C540        C  0.98603761  0.26792560  0.38554796    -0.21700
C541        C  0.01783234  0.17469962  0.29203325    -0.22700
C542        C  0.01536626  0.17429558  0.31914701    -0.22700
C543        C  0.01014351  0.33690427  0.29189813    -0.22700
C544        C  0.00894647  0.33662796  0.31909749    -0.22700
C545        C  0.00875686  0.20779779  0.25712024    -0.18100
C546        C  0.00288270  0.30343399  0.25688472    -0.18100
C547        C  0.99817350  0.30267024  0.35293962    -0.18100
C548        C  0.00122679  0.20674557  0.35316944    -0.18100
H549        H  0.99111993  0.22852148  0.20726783     0.14800
H550        H  0.98767144  0.28034139  0.20719567     0.14800
H551        H  0.98113479  0.22812448  0.40194560     0.14800
H552        H  0.97942492  0.28025249  0.40179984     0.14800
H553        H  0.02346591  0.15818825  0.27966393     0.13100
H554        H  0.01889163  0.15741176  0.33177361     0.13100
H555        H  0.01361509  0.35404860  0.27959729     0.13100
H556        H  0.01124629  0.35363256  0.33185558     0.13100
H557        H  0.01643064  0.25615061  0.28277892     0.26400
H558        H  0.01182598  0.25520286  0.32828615     0.26400
N559        N  0.24895210  0.26577662  0.00279539    -0.36400
N560        N  0.20873934  0.30671016  0.00019511    -0.57000
N561        N  0.25008057  0.34693081  0.99784496    -0.36400
N562        N  0.29022826  0.30569157  0.99763237    -0.57000
C563        C  0.22690471  0.25094560  0.99940566     0.27200
C564        C  0.27002491  0.25039800  0.99682601     0.27200
C565        C  0.22857244  0.36195181  0.99251172     0.27200
C566        C  0.27191903  0.36145074  0.99227303     0.27200
C567        C  0.19290507  0.28592701  0.00579816     0.35800
C568        C  0.19345316  0.32843746  0.00232344     0.35800
C569        C  0.30555938  0.28422101  0.00167489     0.35800
C570        C  0.30618172  0.32690596  0.00067455     0.35800
C571        C  0.23404740  0.22571976  0.99169757    -0.21700
C572        C  0.26122878  0.22540754  0.98993007    -0.21700
C573        C  0.23685510  0.38652502  0.98378817    -0.21700
C574        C  0.26420672  0.38623069  0.98369400    -0.21700
C575        C  0.16742475  0.29442523  0.01136408    -0.22700
C576        C  0.16773483  0.32132028  0.00910410    -0.22700
C577        C  0.33138127  0.29177728  0.00708667    -0.22700
C578        C  0.33180669  0.31877468  0.00643234    -0.22700
C579        C  0.20051365  0.25925539  0.00379230    -0.18100
C580        C  0.29703952  0.25784644  0.99866510    -0.18100
C581        C  0.29852983  0.35342010  0.99637790    -0.18100
C582        C  0.20174851  0.35447441  0.99646730    -0.18100
H583        H  0.22101610  0.20925614  0.98760901     0.14800
H584        H  0.27314627  0.20860114  0.98429916     0.14800
H585        H  0.22447640  0.40303806  0.97829316     0.14800
H586        H  0.27694683  0.40249831  0.97817103     0.14800
H587        H  0.15026828  0.28246104  0.01603522     0.13100
H588        H  0.15081047  0.33411873  0.01181098     0.13100
H589        H  0.34823353  0.27913637  0.01079090     0.13100
H590        H  0.34916013  0.33096309  0.00945777     0.13100
H591        H  0.24966695  0.28437537  0.01132211     0.26400
H592        H  0.24993834  0.32887559  0.00743979     0.26400
C593        C  0.12852462  0.15427900  0.99350377    -0.11200
C594        C  0.12220645  0.17639783  0.00892016     0.15400
C595        C  0.09912879  0.17605728  0.02479899     0.02300
C596        C  0.08415447  0.15293111  0.02648128    -0.15500
C597        C  0.09140466  0.13015157  0.01236198    -0.10300
C598        C  0.11322740  0.13134780  0.99472750     0.09000
C599        C  0.14092549  0.19880393  0.00869247     0.10000
S600        S  0.08819628  0.20392633  0.04418895    -0.24700
H601        H  0.06733045  0.15244389  0.03987655     0.20300
S602        S  0.12254701  0.10453366  0.97316299    -0.30400
H603        H  0.14584607  0.15474304  0.98075056     0.10600
C604        C  0.15770449  0.20402200  0.03051011     0.03800
C605        C  0.17669258  0.22413248  0.02853411    -0.12700
C606        C  0.17951912  0.23873163  0.00503609    -0.08300
C607        C  0.16279225  0.23332030  0.98318871     0.07300
C608        C  0.14350720  0.21365126  0.98536492    -0.13400
S609        S  0.15580551  0.18429420  0.06034324    -0.30300
H610        H  0.18973465  0.22828525  0.04511086     0.11500
S611        S  0.16543803  0.25040425  0.95189099    -0.27400
H612        H  0.13085603  0.20936464  0.96849122     0.08700
H613        H  0.09642981  0.09574439  0.96882670     0.27200
H614        H  0.17604974  0.19732274  0.07439894     0.22000
H615        H  0.19302964  0.25413252  0.95277434     0.27300
H616        H  0.10154121  0.22345214  0.02961573     0.16100
C617        C  0.99275577  0.14994447  0.21189819    -0.11200
C618        C  0.01559737  0.14901805  0.19603738     0.15400
C619        C  0.03616794  0.16747897  0.20034041     0.02300
C620        C  0.03351310  0.18621269  0.22052975    -0.15500
C621        C  0.01053249  0.18733054  0.23614539    -0.10300
C622        C  0.98989363  0.16905652  0.23169319     0.09000
C623        C  0.01673749  0.12959688  0.17420930     0.10000
S624        S  0.06614958  0.16839753  0.18074688    -0.24700
H625        H  0.04933684  0.20028278  0.22391610     0.20300
S626        S  0.95943878  0.16939015  0.25044469    -0.30400
H627        H  0.97685712  0.13596973  0.20847584     0.10600
C628        C  0.03396360  0.10783614  0.17500140     0.03800
C629        C  0.03618200  0.09158217  0.15258625    -0.12700
C630        C  0.02134691  0.09655057  0.12946556    -0.08300
C631        C  0.00290527  0.11751189  0.12936776     0.07300
C632        C  0.00089567  0.13382682  0.15175130    -0.13400
S633        S  0.05318592  0.10090527  0.20446468    -0.30300
H634        H  0.05013792  0.07540815  0.15277276     0.11500
S635        S  0.98137045  0.12332748  0.10123687    -0.27400
H636        H  0.98737749  0.15036992  0.15163551     0.08700
H637        H  0.95795861  0.19694225  0.25272653     0.27200
H638        H  0.06650658  0.07871811  0.19440553     0.22000
H639        H  0.96683312  0.14418329  0.11243771     0.27300
H640        H  0.05512728  0.15854977  0.15710096     0.16100
C641        C  0.16293208  0.03110898  0.13062783    -0.11200
C642        C  0.18027120  0.01113482  0.12250823     0.15400
C643        C  0.17497247  0.99716973  0.09878865     0.02300
C644        C  0.15218479  0.00320181  0.08403576    -0.15500
C645        C  0.13464350  0.02293680  0.09246649    -0.10300
C646        C  0.14045115  0.03737844  0.11577304     0.09000
C647        C  0.20337803  0.00549701  0.13968359     0.10000
S648        S  0.19619678  0.97134279  0.08651976    -0.24700
H649        H  0.14784738  0.99210677  0.06614460     0.20300
S650        S  0.12033091  0.06443792  0.12732604    -0.30400
H651        H  0.16708434  0.04203479  0.14867648     0.10600
C652        C  0.22456533  0.02348936  0.14161615     0.03800
C653        C  0.24431933  0.01948269  0.16076847    -0.12700
C654        C  0.24378047  0.99736791  0.17751797    -0.08300
C655        C  0.22335382  0.97852226  0.17439030     0.07300
C656        C  0.20311140  0.98303213  0.15588148    -0.13400
S657        S  0.22640743  0.05152189  0.11959762    -0.30300
H658        H  0.26016028  0.03372936  0.16297140     0.11500
S659        S  0.22190604  0.94863873  0.19365144    -0.27400
H660        H  0.18690225  0.96909420  0.15425371     0.08700
H661        H  0.11296726  0.07331898  0.10189632     0.27200
H662        H  0.25152859  0.06037422  0.12785309     0.22000
H663        H  0.24949542  0.94574154  0.19633003     0.27300
H664        H  0.21984464  0.98103849  0.09760676     0.16100
C665        C  0.08375718  0.39276987  0.99837044    -0.11200
C666        C  0.10411710  0.41146306  0.99657049     0.15400
C667        C  0.09766365  0.43847071  0.99694820     0.02300
C668        C  0.07127343  0.44615274  0.00095696    -0.15500
C669        C  0.05086136  0.42744593  0.00402884    -0.10300
C670        C  0.05730144  0.40034053  0.00156068     0.09000
C671        C  0.13177244  0.40173396  0.99526508     0.10000
S672        S  0.12223961  0.46399396  0.99309236    -0.24700
H673        H  0.06682043  0.46696872  0.00234330     0.20300
S674        S  0.03296571  0.37427214  0.00177574    -0.30400
H675        H  0.08858710  0.37199309  0.99742946     0.10600
C676        C  0.14834597  0.40180476  0.01786309     0.03800
C677        C  0.17260359  0.38825494  0.01704987    -0.12700
C678        C  0.18052562  0.37468603  0.99407754    -0.08300
C679        C  0.16475446  0.37629936  0.97096045     0.07300
C680        C  0.14045125  0.38948687  0.97186864    -0.13400
S681        S  0.13754693  0.41704117  0.04843674    -0.30300
H682        H  0.18455295  0.38661348  0.03484865     0.11500
S683        S  0.17376083  0.36010337  0.94042870    -0.27400
H684        H  0.12777594  0.38946339  0.95447624     0.08700
H685        H  0.01435831  0.38824280  0.98645999     0.27200
H686        H  0.16147334  0.41371349  0.06239141     0.22000
H687        H  0.20111770  0.36459071  0.94323007     0.27300
H688        H  0.13975315  0.44919706  0.97732377     0.16100
C689        C  0.96632700  0.37178804  0.15407954    -0.11200
C690        C  0.98642218  0.37850948  0.17212176     0.15400
C691        C  0.00236158  0.40087526  0.16708024     0.02300
C692        C  0.99840305  0.41545376  0.14378776    -0.15500
C693        C  0.97859266  0.40841859  0.12555839    -0.10300
C694        C  0.96192853  0.38672344  0.13118074     0.09000
C695        C  0.99116466  0.36084186  0.19505541     0.10000
S696        S  0.02795971  0.41184632  0.18954496    -0.24700
H697        H  0.01097474  0.43231461  0.13976711     0.20300
S698        S  0.93419412  0.37757322  0.11045750    -0.30400
H699        H  0.95391478  0.35476908  0.15793439     0.10600
C700        C  0.97219606  0.35765733  0.21541171     0.03800
C701        C  0.97676764  0.33920637  0.23563640    -0.12700
C702        C  0.00011428  0.32419090  0.23615930    -0.08300
C703        C  0.01954515  0.32824416  0.21635187     0.07300
C704        C  0.01468662  0.34617572  0.19583727    -0.13400
S705        S  0.94236212  0.37729131  0.21582789    -0.30300
H706        H  0.96200380  0.33612621  0.25095528     0.11500
S707        S  0.05070422  0.31091003  0.21599143    -0.27400
H708        H  0.02932285  0.34867731  0.18026324     0.08700
H709        H  0.92776016  0.40332559  0.10248084     0.27200
H710        H  0.93223397  0.36756592  0.23996577     0.22000
H711        H  0.05273167  0.30801256  0.24370712     0.27300
H712        H  0.01608919  0.40214206  0.21285968     0.16100
C713        C  0.98105413  0.14334831  0.38723170    -0.11200
C714        C  0.00473480  0.13671627  0.40020072     0.15400
C715        C  0.02535539  0.15554832  0.40156132     0.02300
C716        C  0.02282622  0.17947331  0.38792420    -0.15500
C717        C  0.99987421  0.18528238  0.37333294    -0.10300
C718        C  0.97829045  0.16751511  0.37411236     0.09000
C719        C  0.00870472  0.10900466  0.40875679     0.10000
S720        S  0.05583283  0.14958089  0.41925804    -0.24700
H721        H  0.03943190  0.19303027  0.38746130     0.20300
S722        S  0.94756132  0.17370314  0.35695436    -0.30400
H723        H  0.96507813  0.12908706  0.38624898     0.10600
C724        C  0.99484720  0.09790432  0.43034973     0.03800
C725        C  0.99895994  0.07131815  0.43702980    -0.12700
C726        C  0.01661477  0.05547459  0.42246196    -0.08300
C727        C  0.03093490  0.06704054  0.40112840     0.07300
C728        C  0.02645241  0.09335430  0.39432104    -0.13400
S729        S  0.97252827  0.11780805  0.44986232    -0.30300
H730        H  0.98832947  0.06281723  0.45363971     0.11500
S731        S  0.05642935  0.05005180  0.38272860    -0.27400
H732        H  0.03727762  0.10191138  0.37781898     0.08700
H733        H  0.94931887  0.20130623  0.35783554     0.27200
H734        H  0.96225579  0.09717140  0.46542418     0.22000
H735        H  0.06815501  0.03880909  0.40542109     0.27300
H736        H  0.04480341  0.13235313  0.43815712     0.16100
C737        C  0.17720945  0.00369357  0.39486768    -0.11200
C738        C  0.17561758  0.00147663  0.36711672     0.15400
C739        C  0.15052853  0.99763713  0.35528396     0.02300
C740        C  0.12817260  0.99387891  0.37133872    -0.15500
C741        C  0.12978735  0.99448331  0.39931103    -0.10300
C742        C  0.15462682  0.00091367  0.41098692     0.09000
C743        C  0.20040412  0.00030734  0.35107310     0.10000
S744        S  0.14584632  0.99654004  0.31971676    -0.24700
H745        H  0.10943525  0.98971112  0.36168492     0.20300
S746        S  0.15912717  0.00594355  0.44613924    -0.30400
H747        H  0.19631541  0.00711507  0.40410315     0.10600
C748        C  0.21760762  0.02208208  0.34815623     0.03800
C749        C  0.23956950  0.02014016  0.33098971    -0.12700
C750        C  0.24449676  0.99695939  0.31655214    -0.08300
C751        C  0.22784585  0.97491486  0.32036413     0.07300
C752        C  0.20615324  0.97682447  0.33754690    -0.13400
S753        S  0.21064834  0.05282215  0.36477503    -0.30300
H754        H  0.25237424  0.03699593  0.32792021     0.11500
S755        S  0.23241874  0.94414580  0.30300426    -0.27400
H756        H  0.19318021  0.95996056  0.33995273     0.08700
H757        H  0.13585671  0.02094938  0.44899881     0.27200
H758        H  0.23274738  0.06673047  0.35503445     0.22000
H759        H  0.25974353  0.94679011  0.29831381     0.27300
H760        H  0.16718916  0.01324154  0.31334909     0.16100
C761        C  0.99324730  0.40418732  0.43700242    -0.11200
C762        C  0.99773471  0.39943872  0.40996987     0.15400
C763        C  0.00084228  0.42082554  0.39242405     0.02300
C764        C  0.99772632  0.44643992  0.40190675    -0.15500
C765        C  0.99205230  0.45148000  0.42880988    -0.10300
C766        C  0.99072773  0.42992030  0.44671014     0.09000
C767        C  0.99653096  0.37220224  0.39990304     0.10000
S768        S  0.00758034  0.41659114  0.35746399    -0.24700
H769        H  0.99920949  0.46259576  0.38791325     0.20300
S770        S  0.98366323  0.43353957  0.48158214    -0.30400
H771        H  0.99091483  0.38769452  0.45047337     0.10600
C772        C  0.01868504  0.35541923  0.40089600     0.03800
C773        C  0.01771996  0.33116551  0.38760224    -0.12700
C774        C  0.99518542  0.32377235  0.37304586    -0.08300
C775        C  0.97246261  0.33998860  0.37343308     0.07300
C776        C  0.97338469  0.36399960  0.38690912    -0.13400
S777        S  0.04897382  0.36609889  0.41669600    -0.30300
H778        H  0.03519847  0.31884432  0.38675319     0.11500
S779        S  0.94274497  0.33239556  0.35496869    -0.27400
H780        H  0.95637801  0.37700428  0.38618839     0.08700
H781        H  0.00618239  0.44928865  0.48617342     0.27200
H782        H  0.06354180  0.34299839  0.41182728     0.22000
H783        H  0.94647842  0.30500725  0.35404433     0.27300
H784        H  0.02352910  0.39412891  0.36048434     0.16100
C785        C  0.78808036  0.48160028  0.35342973    -0.11200
C786        C  0.80627822  0.50249782  0.35305369     0.15400
C787        C  0.80453886  0.52177459  0.33290880     0.02300
C788        C  0.78381514  0.52060656  0.31455575    -0.15500
C789        C  0.76529825  0.50000643  0.31515536    -0.10300
C790        C  0.76783852  0.47994147  0.33443800     0.09000
C791        C  0.82675310  0.50420626  0.37396256     0.10000
S792        S  0.82812444  0.54834287  0.32961266    -0.24700
H793        H  0.78220109  0.53576729  0.29948571     0.20300
S794        S  0.74589773  0.45190845  0.33583358    -0.30400
H795        H  0.78967414  0.46653934  0.36859530     0.10600
C796        C  0.82564101  0.52379492  0.39376763     0.03800
C797        C  0.84769340  0.52795301  0.41021431    -0.12700
C798        C  0.87069899  0.51267899  0.40734458    -0.08300
C799        C  0.87064936  0.49137579  0.38917545     0.07300
C800        C  0.84878993  0.48754272  0.37251900    -0.13400
S801        S  0.79651532  0.54414187  0.39732611    -0.30300
H802        H  0.84755100  0.54407176  0.42430833     0.11500
S803        S  0.89787366  0.46855864  0.38611972    -0.27400
H804        H  0.84932344  0.47204785  0.35770736     0.08700
H805        H  0.74052637  0.45082364  0.30843833     0.27200
H806        H  0.80463066  0.55712946  0.42065504     0.22000
H807        H  0.90569742  0.47009866  0.41292541     0.27300
H808        H  0.85015639  0.53432258  0.33916597     0.16100
C809        C  0.78736880  0.47544168  0.14221891    -0.11200
C810        C  0.80437925  0.49717607  0.13983441     0.15400
C811        C  0.80017993  0.51956890  0.15590375     0.02300
C812        C  0.77996467  0.51923241  0.17491110    -0.15500
C813        C  0.76347426  0.49718442  0.17789878    -0.10300
C814        C  0.76704328  0.47513088  0.16115942     0.09000
C815        C  0.82829754  0.49449949  0.12310761     0.10000
S816        S  0.82046127  0.54875203  0.15362832    -0.24700
H817        H  0.77704897  0.53628067  0.18754008     0.20300
S818        S  0.74678637  0.44589527  0.16329364    -0.30400
H819        H  0.79067473  0.45817624  0.12999565     0.10600
C820        C  0.85277047  0.48776416  0.13459627     0.03800
C821        C  0.87506891  0.48473249  0.11834137    -0.12700
C822        C  0.87348771  0.48787501  0.09057486    -0.08300
C823        C  0.84879203  0.49502736  0.07918842     0.07300
C824        C  0.82646565  0.49791728  0.09554003    -0.13400
S825        S  0.85542262  0.48210335  0.16996513    -0.30300
H826        H  0.89369904  0.47911212  0.12736507     0.11500
S827        S  0.84441878  0.50142844  0.04423395    -0.27400
H828        H  0.80757498  0.50317097  0.08677860     0.08700
H829        H  0.74059020  0.44798381  0.19043154     0.27200
H830        H  0.88021734  0.46948105  0.16924461     0.22000
H831        H  0.86861004  0.51498769  0.04142194     0.27300
H832        H  0.82682216  0.54595818  0.12657335     0.16100
C833        C  0.14130344  0.61510875  0.46771122    -0.11200
C834        C  0.13115168  0.60388109  0.49105673     0.15400
C835        C  0.14599963  0.60551249  0.51478010     0.02300
C836        C  0.16983884  0.61970976  0.51502885    -0.15500
C837        C  0.17929768  0.63211289  0.49198028    -0.10300
C838        C  0.16523111  0.62907910  0.46787488     0.09000
C839        C  0.10373772  0.59346703  0.49056317     0.10000
S840        S  0.13459084  0.59158504  0.54569233    -0.24700
H841        H  0.18046666  0.62215712  0.53358669     0.20300
S842        S  0.17567984  0.64433315  0.43721682    -0.30400
H843        H  0.12991848  0.61392670  0.44947616     0.10600
C844        C  0.08203970  0.60993503  0.49631015     0.03800
C845        C  0.05616228  0.60016699  0.49345621    -0.12700
C846        C  0.05146300  0.57421240  0.48486111    -0.08300
C847        C  0.07340968  0.55768638  0.47945532     0.07300
C848        C  0.09922802  0.56743535  0.48253502    -0.13400
S849        S  0.08738873  0.64371799  0.50631443    -0.30300
H850        H  0.03947010  0.61296594  0.49740702     0.11500
S851        S  0.06993923  0.52477274  0.46650161    -0.27400
H852        H  0.11595597  0.55492431  0.47778292     0.08700
H853        H  0.20288854  0.64509417  0.44312653     0.27200
H854        H  0.06056823  0.65019751  0.51021100     0.22000
H855        H  0.05047604  0.53155027  0.44767607     0.27300
H856        H  0.12024775  0.57067901  0.53434742     0.16100
C857        C  0.16085533  0.80058544  0.46065954    -0.11200
C858        C  0.14960219  0.81058042  0.48409338     0.15400
C859        C  0.15600268  0.79877530  0.50869772     0.02300
C860        C  0.17444621  0.77824739  0.50941166    -0.15500
C861        C  0.18591345  0.76845780  0.48600045    -0.10300
C862        C  0.17860647  0.77946134  0.46127641     0.09000
C863        C  0.13189702  0.83374265  0.48205499     0.10000
S864        S  0.14131497  0.80884661  0.53978205    -0.24700
H865        H  0.17973913  0.76959031  0.52836823     0.20300
S866        S  0.19177581  0.76809601  0.42994357    -0.30400
H867        H  0.15587854  0.80946644  0.44172196     0.10600
C868        C  0.13952116  0.85860783  0.49190225     0.03800
C869        C  0.12256539  0.88018388  0.48851139    -0.12700
C870        C  0.09839188  0.87774593  0.47477541    -0.08300
C871        C  0.09123555  0.85283323  0.46425986     0.07300
C872        C  0.10777047  0.83112352  0.46847463    -0.13400
S873        S  0.17152672  0.86331842  0.50735477    -0.30300
H874        H  0.12845905  0.89924044  0.49615460     0.11500
S875        S  0.06262753  0.84772563  0.44342311    -0.27400
H876        H  0.10224084  0.81214884  0.46028494     0.08700
H877        H  0.19735281  0.74220309  0.43794991     0.27200
H878        H  0.16768162  0.88965388  0.51509604     0.22000
H879        H  0.06700742  0.87054425  0.42817271     0.27300
H880        H  0.11724653  0.81770754  0.52895248     0.16100
C881        C  0.99736517  0.90673617  0.07056388    -0.11200
C882        C  0.01377979  0.89669148  0.09067850     0.15400
C883        C  0.03198440  0.91369269  0.10332956     0.02300
C884        C  0.03414488  0.93982954  0.09504388    -0.15500
C885        C  0.01794783  0.95006484  0.07479082    -0.10300
C886        C  0.99885889  0.93329343  0.06287083     0.09000
C887        C  0.01133365  0.86873741  0.09897668     0.10000
S888        S  0.05290113  0.90327638  0.13042267    -0.24700
H889        H  0.04882141  0.95226641  0.10456020     0.20300
S890        S  0.97507424  0.94470136  0.03876975    -0.30400
H891        H  0.98292228  0.89392209  0.06120896     0.10600
C892        C  0.98998337  0.86027648  0.11490235     0.03800
C893        C  0.99115942  0.83552924  0.12721647    -0.12700
C894        C  0.01340346  0.81917259  0.12425062    -0.08300
C895        C  0.03388922  0.82685449  0.10667011     0.07300
C896        C  0.03246731  0.85143454  0.09405260    -0.13400
S897        S  0.96244198  0.88197057  0.12162928    -0.30300
H898        H  0.97554562  0.82955757  0.14071072     0.11500
S899        S  0.06300336  0.80713814  0.10045086    -0.27400
H900        H  0.04880336  0.85786487  0.08164077     0.08700
H901        H  0.97089639  0.96917762  0.05120686     0.27200
H902        H  0.94845686  0.86478036  0.13849424     0.22000
H903        H  0.06274777  0.79237664  0.12400971     0.27300
H904        H  0.03363994  0.88724090  0.14248394     0.16100
C905        C  0.01098031  0.58491661  0.09589331    -0.11200
C906        C  0.00279635  0.60552624  0.07926964     0.15400
C907        C  0.99209548  0.59940325  0.05402066     0.02300
C908        C  0.98880209  0.57292447  0.04660640    -0.15500
C909        C  0.99607940  0.55226255  0.06371949    -0.10300
C910        C  0.00798067  0.55854530  0.08839787     0.09000
C911        C  0.00532267  0.63284118  0.08966718     0.10000
S912        S  0.98157750  0.62422749  0.03065911    -0.24700
H913        H  0.97959444  0.56843821  0.02767267     0.20300
S914        S  0.02001360  0.53392269  0.11120077    -0.30400
H915        H  0.01956432  0.58945208  0.11511754     0.10600
C916        C  0.98309049  0.64715297  0.09867139     0.03800
C917        C  0.98689058  0.67067264  0.11291793    -0.12700
C918        C  0.01245941  0.68018040  0.11843272    -0.08300
C919        C  0.03460158  0.66669310  0.10792169     0.07300
C920        C  0.03080364  0.64317450  0.09384872    -0.13400
S921        S  0.94998464  0.63428041  0.09446143    -0.30300
H922        H  0.96998431  0.68077080  0.12138642     0.11500
S923        S  0.06824646  0.67709588  0.11404195    -0.27400
H924        H  0.04793651  0.63220746  0.08706928     0.08700
H925        H  0.02795838  0.51608376  0.09134577     0.27200
H926        H  0.93666471  0.65766279  0.10124685     0.22000
H927        H  0.06247771  0.70391375  0.11770515     0.27300
H928        H  0.99762471  0.64469878  0.04038492     0.16100
C929        C  0.99879229  0.59728972  0.32036481    -0.11200
C930        C  0.99150321  0.62392148  0.31974556     0.15400
C931        C  0.97865631  0.63507365  0.34195341     0.02300
C932        C  0.97417323  0.61971007  0.36451301    -0.15500
C933        C  0.98177242  0.59311787  0.36554347    -0.10300
C934        C  0.99424167  0.58180405  0.34302354     0.09000
C935        C  0.99899000  0.64024771  0.29657690     0.10000
S936        S  0.96813038  0.66900824  0.34315495    -0.24700
H937        H  0.96430527  0.62864063  0.38139499     0.20300
S938        S  0.00613253  0.54836632  0.34232577    -0.30400
H939        H  0.00886292  0.58876263  0.30339577     0.10600
C940        C  0.02219146  0.65571706  0.29691974     0.03800
C941        C  0.02693357  0.67357167  0.27618758    -0.12700
C942        C  0.00872902  0.67651568  0.25528614    -0.08300
C943        C  0.98588600  0.66028775  0.25458804     0.07300
C944        C  0.98154862  0.64202267  0.27498157    -0.13400
S945        S  0.04537877  0.65313355  0.32414383    -0.30300
H946        H  0.04445258  0.68591226  0.27657223     0.11500
S947        S  0.96096304  0.66259397  0.22896508    -0.27400
H948        H  0.96369917  0.63011903  0.27479154     0.08700
H949        H  0.01595162  0.54878605  0.36849913     0.27200
H950        H  0.06362478  0.67189632  0.31469453     0.22000
H951        H  0.96395496  0.68966317  0.22403688     0.27300
H952        H  0.96262248  0.67171401  0.31594774     0.16100
C953        C  0.04263998  0.83889007  0.29530169    -0.11200
C954        C  0.01841339  0.84917834  0.30426615     0.15400
C955        C  0.99475238  0.84158110  0.29134852     0.02300
C956        C  0.99584969  0.82417222  0.26976311    -0.15500
C957        C  0.02001577  0.81342139  0.26118705    -0.10300
C958        C  0.04374189  0.82104454  0.27407340     0.09000
C959        C  0.01853426  0.86769710  0.32714174     0.10000
S960        S  0.96253563  0.85272813  0.30200237    -0.24700
H961        H  0.97760539  0.81826810  0.26005406     0.20300
S962        S  0.07601075  0.80836371  0.26522460    -0.30400
H963        H  0.06086340  0.84468754  0.30512236     0.10600
C964        C  0.02504101  0.85905959  0.35292054     0.03800
C965        C  0.02577780  0.87724525  0.37386801    -0.12700
C966        C  0.02011324  0.90410268  0.36983811    -0.08300
C967        C  0.01225379  0.91239294  0.34413958     0.07300
C968        C  0.01195413  0.89424054  0.32308982    -0.13400
S969        S  0.03235732  0.82480224  0.35925836    -0.30300
H970        H  0.03160177  0.87052420  0.39339827     0.11500
S971        S  0.00148788  0.94544730  0.33700125    -0.27400
H972        H  0.00636679  0.90080499  0.30338108     0.08700
H973        H  0.06994353  0.79853215  0.23991703     0.27200
H974        H  0.03385945  0.82671897  0.38711487     0.22000
H975        H  0.98807627  0.94874538  0.36130927     0.27300
H976        H  0.96869050  0.85405431  0.32923104     0.16100
C977        C  0.10261601  0.99346933  0.91700373    -0.11200
C978        C  0.08655986  0.00255100  0.89622705     0.15400
C979        C  0.06132972  0.01306888  0.90209945     0.02300
C980        C  0.05341858  0.01565016  0.92870428    -0.15500
C981        C  0.07013733  0.00785014  0.94961158    -0.10300
C982        C  0.09462545  0.99573986  0.94350682     0.09000
C983        C  0.09759931  0.00179044  0.86897415     0.10000
S984        S  0.03894892  0.02468641  0.87673749    -0.24700
H985        H  0.03458701  0.02492004  0.93312448     0.20300
S986        S  0.11662234  0.98280637  0.96856048    -0.30400
H987        H  0.12180038  0.98495561  0.91252247     0.10600
C988        C  0.10960892  0.02416636  0.85752937     0.03800
C989        C  0.12317421  0.02168682  0.83328526    -0.12700
C990        C  0.12514154  0.99723229  0.82040956    -0.08300
C991        C  0.11220199  0.97510678  0.83144825     0.07300
C992        C  0.09873790  0.97758419  0.85564776    -0.13400
S993        S  0.10930514  0.05538626  0.87475209    -0.30300
H994        H  0.13355550  0.03845847  0.82499829     0.11500
S995        S  0.11410751  0.94279776  0.81677501    -0.27400
H996        H  0.08977855  0.96033161  0.86461550     0.08700
H997        H  0.09644304  0.97578369  0.98653237     0.27200
H998        H  0.12598668  0.06890949  0.85696500     0.22000
H999        H  0.11585332  0.95149887  0.79033561     0.27300
H1000       H  0.04848904  0.00865669  0.85608841     0.16100
C1001       C  0.06360960  0.99804579  0.59525364    -0.11200
C1002       C  0.09071049  0.99681417  0.60124743     0.15400
C1003       C  0.10904420  0.99414840  0.58023579     0.02300
C1004       C  0.09998395  0.99232895  0.55397969    -0.15500
C1005       C  0.07273266  0.99271142  0.54767256    -0.10300
C1006       C  0.05443302  0.99635074  0.56889549     0.09000
C1007       C  0.09952555  0.99792771  0.62947497     0.10000
S1008       S  0.14435186  0.99270120  0.58565271    -0.24700
H1009       H  0.11457406  0.98990577  0.53836760     0.20300
S1010       S  0.01913688  0.99827721  0.56415136    -0.30400
H1011       H  0.04945410  0.00033077  0.61129445     0.10600
C1012       C  0.10902051  0.02142177  0.64103129     0.03800
C1013       C  0.12140622  0.02059436  0.66610604    -0.12700
C1014       C  0.12417664  0.99672818  0.67997345    -0.08300
C1015       C  0.11256036  0.97369452  0.66930407     0.07300
C1016       C  0.10053786  0.97449523  0.64418937    -0.13400
S1017       S  0.10640939  0.05215727  0.62322730    -0.30300
H1018       H  0.13040086  0.03821213  0.67423554     0.11500
S1019       S  0.11503601  0.94217154  0.68554572    -0.27400
H1020       H  0.09309363  0.95643100  0.63546007     0.08700
H1021       H  0.02108983  0.01992048  0.54678771     0.27200
H1022       H  0.11918384  0.06785434  0.64239455     0.22000
H1023       H  0.11541212  0.95211927  0.71160079     0.27300
H1024       H  0.14288768  0.97704911  0.60858741     0.16100
C1025       C  0.85582506  0.10334766  0.03153019    -0.11200
C1026       C  0.86955977  0.09833028  0.00781498     0.15400
C1027       C  0.85809569  0.10577901  0.98336732     0.02300
C1028       C  0.83425917  0.11986119  0.98326524    -0.15500
C1029       C  0.82129558  0.12627843  0.00707085    -0.10300
C1030       C  0.83173398  0.11704669  0.03142179     0.09000
C1031       C  0.89719313  0.08864299  0.00948456     0.10000
S1032       S  0.87394463  0.09962526  0.95185677    -0.24700
H1033       H  0.82640949  0.12701412  0.96456648     0.20300
S1034       S  0.81665150  0.12428457  0.06312210    -0.30400
H1035       H  0.86459008  0.09768515  0.05034456     0.10600
C1036       C  0.91861666  0.10641849  0.00965068     0.03800
C1037       C  0.94451363  0.09683363  0.01228340    -0.12700
C1038       C  0.94969370  0.06974450  0.01541856    -0.08300
C1039       C  0.92792535  0.05196036  0.01506186     0.07300
C1040       C  0.90206077  0.06161343  0.01193458    -0.13400
S1041       S  0.91289105  0.14148199  0.00736605    -0.30300
H1042       H  0.96082515  0.11070184  0.01232856     0.11500
S1043       S  0.93133177  0.01699421  0.01985235    -0.27400
H1044       H  0.88549597  0.04799997  0.01201353     0.08700
H1045       H  0.79089224  0.12881098  0.05357521     0.27200
H1046       H  0.93934943  0.14943406  0.01115443     0.22000
H1047       H  0.94621967  0.01970766  0.04335628     0.27300
H1048       H  0.88726069  0.07663059  0.95971756     0.16100
C1049       C  0.83861576  0.30332255  0.02175472    -0.11200
C1050       C  0.85737719  0.30549888  0.00130743     0.15400
C1051       C  0.85852740  0.28588034  0.98142446     0.02300
C1052       C  0.84051061  0.26482358  0.98221961    -0.15500
C1053       C  0.82139776  0.26297744  0.00244833    -0.10300
C1054       C  0.82088780  0.28219908  0.02271611     0.09000
C1055       C  0.87551849  0.32838423  0.00191999     0.10000
S1056       S  0.88218830  0.28659232  0.95450817    -0.24700
H1057       H  0.84099093  0.25006121  0.96666771     0.20300
S1058       S  0.79795502  0.28092857  0.05021631    -0.30400
H1059       H  0.83792391  0.31817573  0.03722083     0.10600
C1060       C  0.86679077  0.35354135  0.99426573     0.03800
C1061       C  0.88325618  0.37539527  0.99851049    -0.12700
C1062       C  0.90832572  0.37279718  0.01061749    -0.08300
C1063       C  0.91737955  0.34712143  0.01716127     0.07300
C1064       C  0.90096325  0.32532116  0.01254258    -0.13400
S1065       S  0.83442231  0.35779735  0.97949917    -0.30300
H1066       H  0.87620431  0.39472875  0.99291437     0.11500
S1067       S  0.94875217  0.34060994  0.03292108    -0.27400
H1068       H  0.90758954  0.30588643  0.01842419     0.08700
H1069       H  0.79620199  0.25332451  0.05142558     0.27200
H1070       H  0.83638273  0.38508558  0.97513358     0.22000
H1071       H  0.94411317  0.35826505  0.05394550     0.27300
H1072       H  0.88742147  0.31375229  0.95486373     0.16100
C1073       C  0.40372811  0.99031751  0.07960490    -0.11200
C1074       C  0.42061411  0.99755341  0.10047662     0.15400
C1075       C  0.44635877  0.00685101  0.09454763     0.02300
C1076       C  0.45377445  0.01072351  0.06791177    -0.15500
C1077       C  0.43611541  0.00520425  0.04697817    -0.10300
C1078       C  0.41125838  0.99368911  0.05307027     0.09000
C1079       C  0.40954625  0.99740196  0.12779666     0.10000
S1080       S  0.47007828  0.01529950  0.12002233    -0.24700
H1081       H  0.47301368  0.01922537  0.06359478     0.20300
S1082       S  0.38812726  0.98293970  0.02795909    -0.30400
H1083       H  0.38415303  0.98264867  0.08405008     0.10600
C1084       C  0.40122966  0.02096562  0.14010339     0.03800
C1085       C  0.38697309  0.01978803  0.16403595    -0.12700
C1086       C  0.38107980  0.99554329  0.17600680    -0.08300
C1087       C  0.39090205  0.97212617  0.16456375     0.07300
C1088       C  0.40460446  0.97323136  0.14036742    -0.13400
S1089       S  0.40692370  0.05240287  0.12429261    -0.30300
H1090       H  0.37915845  0.03764337  0.17279039     0.11500
S1091       S  0.38486123  0.94024631  0.17906797    -0.27400
H1092       H  0.41092552  0.95510739  0.13094266     0.08700
H1093       H  0.40769360  0.97512662  0.00965124     0.27200
H1094       H  0.39617553  0.06806940  0.14467049     0.22000
H1095       H  0.38534863  0.94900472  0.20557556     0.27300
H1096       H  0.45925626  0.99940917  0.14016400     0.16100
C1097       C  0.34935957  0.99135590  0.86677117    -0.11200
C1098       C  0.32475406  0.00041709  0.87571113     0.15400
C1099       C  0.32298854  0.01272819  0.90080364     0.02300
C1100       C  0.34621135  0.01780406  0.91527567    -0.15500
C1101       C  0.37123952  0.01009149  0.90561448    -0.10300
C1102       C  0.37241876  0.99549325  0.88156831     0.09000
C1103       C  0.30188421  0.99814349  0.85741868     0.10000
S1104       S  0.29178957  0.02286557  0.91499128    -0.24700
H1105       H  0.34472247  0.02846472  0.93387381     0.20300
S1106       S  0.40245968  0.98118188  0.86858941    -0.30400
H1107       H  0.35066169  0.98125439  0.84782513     0.10600
C1108       C  0.29162067  0.02043108  0.84427613     0.03800
C1109       C  0.27132837  0.01722340  0.82555541    -0.12700
C1110       C  0.26192522  0.99210245  0.81879062    -0.08300
C1111       C  0.27259797  0.96972240  0.83154290     0.07300
C1112       C  0.29216698  0.97303596  0.85098784    -0.13400
S1113       S  0.30533842  0.05279528  0.85013930    -0.30300
H1114       H  0.26313638  0.03425349  0.81556749     0.11500
S1115       S  0.26230021  0.93652298  0.82389295    -0.27400
H1116       H  0.30044511  0.95586432  0.86068672     0.08700
H1117       H  0.41218801  0.97349666  0.89362865     0.27200
H1118       H  0.29235390  0.06549957  0.82898977     0.22000
H1119       H  0.25382627  0.94124816  0.79774044     0.27300
H1120       H  0.27649218  0.00311552  0.90274355     0.16100
C1121       C  0.35224844  0.21305006  0.97330518    -0.11200
C1122       C  0.35368407  0.19443440  0.99383105     0.15400
C1123       C  0.33728030  0.19737870  0.01640102     0.02300
C1124       C  0.31940766  0.21841697  0.01760272    -0.15500
C1125       C  0.31743364  0.23668321  0.99675895    -0.10300
C1126       C  0.33417122  0.23393708  0.97435949     0.09000
C1127       C  0.37066874  0.17097333  0.98994385     0.10000
S1128       S  0.33741151  0.17449337  0.04383310    -0.24700
H1129       H  0.30661729  0.22040563  0.03479852     0.20300
S1130       S  0.33299883  0.25586464  0.94616580    -0.30400
H1131       H  0.36462724  0.21069499  0.95585469     0.10600
C1132       C  0.35992246  0.14723304  0.98033364     0.03800
C1133       C  0.37651581  0.12542968  0.97664428    -0.12700
C1134       C  0.40387426  0.12674562  0.98210643    -0.08300
C1135       C  0.41448262  0.15062647  0.99215473     0.07300
C1136       C  0.39785087  0.17250680  0.99559120    -0.13400
S1137       S  0.32511883  0.14491363  0.97210004    -0.30300
H1138       H  0.36815716  0.10738363  0.96880967     0.11500
S1139       S  0.44865553  0.15429848  0.00192312    -0.27400
H1140       H  0.40604629  0.19076109  0.00317305     0.08700
H1141       H  0.30599240  0.26227633  0.94823211     0.27200
H1142       H  0.32602062  0.11960397  0.96076691     0.22000
H1143       H  0.45072320  0.12893787  0.01297279     0.27300
H1144       H  0.36343102  0.16530623  0.04040890     0.16100
C1145       C  0.64603995  0.10107403  0.01354346    -0.11200
C1146       C  0.63303816  0.10198169  0.98889729     0.15400
C1147       C  0.64554547  0.11467065  0.96725607     0.02300
C1148       C  0.66993558  0.12730585  0.97114202    -0.15500
C1149       C  0.68208303  0.12790966  0.99622904    -0.10300
C1150       C  0.67045332  0.11375269  0.01742772     0.09000
C1151       C  0.60554250  0.09173335  0.98710620     0.10000
S1152       S  0.63107443  0.11649470  0.93449584    -0.24700
H1153       H  0.67874678  0.13820154  0.95485032     0.20300
S1154       S  0.68454983  0.11281624  0.05036354    -0.30400
H1155       H  0.63661187  0.09119435  0.03014150     0.10600
C1156       C  0.59965106  0.06704001  0.97582515     0.03800
C1157       C  0.57307724  0.05894639  0.97364143    -0.12700
C1158       C  0.55216871  0.07509023  0.98243507    -0.08300
C1159       C  0.55832920  0.09947840  0.99458616     0.07300
C1160       C  0.58483211  0.10752728  0.99664887    -0.13400
S1161       S  0.62589569  0.04611550  0.96370633    -0.30300
H1162       H  0.56851147  0.04033991  0.96416164     0.11500
S1163       S  0.53346388  0.12092676  0.00844098    -0.27400
H1164       H  0.58939325  0.12638365  0.00567155     0.08700
H1165       H  0.71080495  0.11838484  0.04305092     0.27200
H1166       H  0.61004101  0.02371529  0.95930949     0.22000
H1167       H  0.51683584  0.10046722  0.01729317     0.27300
H1168       H  0.60438425  0.11585956  0.94238308     0.16100
C1169       C  0.51504894  0.16050485  0.79481360    -0.11200
C1170       C  0.49206520  0.14504197  0.79673137     0.15400
C1171       C  0.47182514  0.14800514  0.77757101     0.02300
C1172       C  0.47452811  0.16701860  0.75764081    -0.15500
C1173       C  0.49725441  0.18290104  0.75603495    -0.10300
C1174       C  0.51800366  0.17916282  0.77452086     0.09000
C1175       C  0.48839234  0.12831958  0.82054807     0.10000
S1176       S  0.44170402  0.12882234  0.77800498    -0.24700
H1177       H  0.45864173  0.16970371  0.74339548     0.20300
S1178       S  0.54832112  0.19803585  0.77372920    -0.30400
H1179       H  0.53056844  0.15834812  0.80954375     0.10600
C1180       C  0.49897005  0.10272372  0.82233412     0.03800
C1181       C  0.49401518  0.08750730  0.84519390    -0.12700
C1182       C  0.47907455  0.09764078  0.86649301    -0.08300
C1183       C  0.46870223  0.12348398  0.86448736     0.07300
C1184       C  0.47360241  0.13846068  0.84171366    -0.13400
S1185       S  0.51843544  0.08947336  0.79536029    -0.30300
H1186       H  0.50204516  0.06780430  0.84664810     0.11500
S1187       S  0.44800030  0.13821414  0.88964565    -0.27400
H1188       H  0.46540066  0.15812443  0.84024500     0.08700
H1189       H  0.54838672  0.20277600  0.74620776     0.27200
H1190       H  0.52321670  0.06472864  0.80694049     0.22000
H1191       H  0.43332922  0.11516862  0.89470723     0.27300
H1192       H  0.45249799  0.10647313  0.79034905     0.16100
C1193       C  0.40126509  0.00267485  0.41176850    -0.11200
C1194       C  0.42030435  0.99881028  0.39187801     0.15400
C1195       C  0.44665323  0.99291450  0.39920626     0.02300
C1196       C  0.45281506  0.98907233  0.42611493    -0.15500
C1197       C  0.43333961  0.99143924  0.44602469    -0.10300
C1198       C  0.40749148  0.99945073  0.43862135     0.09000
C1199       C  0.41099471  0.99909030  0.36395232     0.10000
S1200       S  0.47301396  0.98918858  0.37525950    -0.24700
H1201       H  0.47279819  0.98329706  0.43141203     0.20300
S1202       S  0.38150310  0.00613193  0.46228099    -0.30400
H1203       H  0.38113124  0.00773874  0.40624540     0.10600
C1204       C  0.40680419  0.97541894  0.34987453     0.03800
C1205       C  0.39296093  0.97597803  0.32567402    -0.12700
C1206       C  0.38255260  0.99961656  0.31571944    -0.08300
C1207       C  0.38787832  0.02345409  0.32923134     0.07300
C1208       C  0.40212246  0.02291507  0.35309126    -0.13400
S1209       S  0.41634887  0.94420601  0.36417145    -0.30300
H1210       H  0.38833010  0.95773898  0.31552261     0.11500
S1211       S  0.37481195  0.05481945  0.31867605    -0.27400
H1212       H  0.40502643  0.04104982  0.36408460     0.08700
H1213       H  0.39847929  0.01754899  0.48127271     0.27200
H1214       H  0.40869967  0.92841974  0.34250677     0.22000
H1215       H  0.37068553  0.04839705  0.29187484     0.27300
H1216       H  0.46130898  0.00424205  0.35499722     0.16100
C1217       C  0.37888585  0.84568068  0.48497387    -0.11200
C1218       C  0.38176195  0.82404878  0.50195523     0.15400
C1219       C  0.40232249  0.82392211  0.52097552     0.02300
C1220       C  0.41839723  0.84623272  0.52379887    -0.15500
C1221       C  0.41432246  0.86870479  0.50804870    -0.10300
C1222       C  0.39508258  0.86786127  0.48759960     0.09000
C1223       C  0.36167309  0.80298106  0.50061717     0.10000
S1224       S  0.40785028  0.79675274  0.54340486    -0.24700
H1225       H  0.43315508  0.84658154  0.53945257     0.20300
S1226       S  0.38996100  0.89449609  0.46445452    -0.30400
H1227       H  0.36338743  0.84556414  0.47004783     0.10600
C1228       C  0.34013962  0.80250368  0.51843698     0.03800
C1229       C  0.32109417  0.78258240  0.51619338    -0.12700
C1230       C  0.32291650  0.76341834  0.49620330    -0.08300
C1231       C  0.34425322  0.76417345  0.47804998     0.07300
C1232       C  0.36349377  0.78398993  0.48049255    -0.13400
S1233       S  0.33661494  0.82756308  0.54368117    -0.30300
H1234       H  0.30457169  0.78191122  0.52992679     0.11500
S1235       S  0.34660683  0.74044555  0.45140529    -0.27400
H1236       H  0.37991726  0.78490491  0.46666117     0.08700
H1237       H  0.41655333  0.90291091  0.46431952     0.27200
H1238       H  0.31104886  0.82022365  0.55209973     0.22000
H1239       H  0.37112821  0.74911568  0.44132090     0.27300
H1240       H  0.39696117  0.77702478  0.52712969     0.16100
C1241       C  0.34491635  0.99859910  0.62588486    -0.11200
C1242       C  0.32310768  0.98199940  0.62167874     0.15400
C1243       C  0.32294379  0.96518300  0.59928250     0.02300
C1244       C  0.34544234  0.96382067  0.58293589    -0.15500
C1245       C  0.36795253  0.97938525  0.58804433    -0.10300
C1246       C  0.36700679  0.99787258  0.60911237     0.09000
C1247       C  0.30124869  0.98261565  0.64138073     0.10000
S1248       S  0.29500042  0.94458335  0.59084705    -0.24700
H1249       H  0.34567898  0.94984203  0.56665817     0.20300
S1250       S  0.39308274  0.02140796  0.61545095    -0.30400
H1251       H  0.34479922  0.01213417  0.64255408     0.10600
C1252       C  0.29696394  0.96170856  0.65936083     0.03800
C1253       C  0.27689518  0.96387694  0.67856149    -0.12700
C1254       C  0.26126353  0.98663837  0.68036393    -0.08300
C1255       C  0.26578294  0.00764225  0.66251438     0.07300
C1256       C  0.28554063  0.00530684  0.64314076    -0.13400
S1257       S  0.31772402  0.93277063  0.65865374    -0.30300
H1258       H  0.27349412  0.94797454  0.69248832     0.11500
S1259       S  0.24724484  0.03797477  0.66356167    -0.27400
H1260       H  0.28902272  0.02149815  0.62954981     0.08700
H1261       H  0.39999963  0.02471756  0.58855019     0.27200
H1262       H  0.30330792  0.91814920  0.67751639     0.22000
H1263       H  0.24230743  0.03781098  0.69105045     0.27300
H1264       H  0.27550380  0.96023652  0.60300621     0.16100
C1265       C  0.46657531  0.14376791  0.60377322    -0.11200
C1266       C  0.49001123  0.13311594  0.59335850     0.15400
C1267       C  0.51354181  0.14822179  0.59423511     0.02300
C1268       C  0.51346408  0.17280975  0.60696520    -0.15500
C1269       C  0.49036129  0.18268750  0.61892084    -0.10300
C1270       C  0.46648584  0.16828464  0.61651732     0.09000
C1271       C  0.48961552  0.10519980  0.58453558     0.10000
S1272       S  0.54464524  0.13626503  0.58143771    -0.24700
H1273       H  0.53194265  0.18350653  0.60916133     0.20300
S1274       S  0.43591401  0.17884501  0.63168800    -0.30400
H1275       H  0.44847605  0.13225061  0.60319178     0.10600
C1276       C  0.49645917  0.08467794  0.60210868     0.03800
C1277       C  0.49355198  0.05833511  0.59398039    -0.12700
C1278       C  0.48355357  0.05196144  0.56869077    -0.08300
C1279       C  0.47625266  0.07271893  0.55133291     0.07300
C1280       C  0.47973011  0.09897406  0.55928045    -0.13400
S1281       S  0.50795782  0.09209068  0.63529308    -0.30300
H1282       H  0.49884516  0.04259997  0.60747724     0.11500
S1283       S  0.46024339  0.06716517  0.51977859    -0.27400
H1284       H  0.47370101  0.11471535  0.54607055     0.08700
H1285       H  0.44098988  0.20596065  0.62982029     0.27200
H1286       H  0.50804644  0.06601501  0.64470389     0.22000
H1287       H  0.44372300  0.04679446  0.52907751     0.27300
H1288       H  0.53359462  0.12063860  0.56120190     0.16100
C1289       C  0.41558459  0.60897452  0.49909407    -0.11200
C1290       C  0.39506481  0.59035912  0.49875887     0.15400
C1291       C  0.40132982  0.56336897  0.50043612     0.02300
C1292       C  0.42768512  0.55574247  0.50475735    -0.15500
C1293       C  0.44824716  0.57447580  0.50654691    -0.10300
C1294       C  0.44208665  0.60140523  0.50247885     0.09000
C1295       C  0.36743951  0.60024012  0.49787972     0.10000
S1296       S  0.37655720  0.53788740  0.49755997    -0.24700
H1297       H  0.43203164  0.53500576  0.50725243     0.20300
S1298       S  0.46759322  0.62644675  0.50089442    -0.30400
H1299       H  0.41065442  0.62963892  0.49721268     0.10600
C1300       C  0.35126320  0.60045495  0.52079123     0.03800
C1301       C  0.32712425  0.61423406  0.52036517    -0.12700
C1302       C  0.31904924  0.62790484  0.49754661    -0.08300
C1303       C  0.33448071  0.62619095  0.47416883     0.07300
C1304       C  0.35855691  0.61261425  0.47465275    -0.13400
S1305       S  0.36246810  0.58528654  0.55124593    -0.30300
H1306       H  0.31537960  0.61592347  0.53829747     0.11500
S1307       S  0.32551913  0.64274124  0.44376261    -0.27400
H1308       H  0.37097445  0.61251376  0.45706818     0.08700
H1309       H  0.45132441  0.64713408  0.49204501     0.27200
H1310       H  0.34020329  0.59181156  0.56672628     0.22000
H1311       H  0.29798395  0.64178324  0.44784778     0.27300
H1312       H  0.35918288  0.55223847  0.48122654     0.16100
C1313       C  0.60586768  0.52954371  0.35423612    -0.11200
C1314       C  0.59960912  0.50552839  0.36651105     0.15400
C1315       C  0.60592600  0.48172288  0.35344776     0.02300
C1316       C  0.62005309  0.48247062  0.32947666    -0.15500
C1317       C  0.62769442  0.50650333  0.31802186    -0.10300
C1318       C  0.61969962  0.53030719  0.33012827     0.09000
C1319       C  0.58936723  0.50631172  0.39413867     0.10000
S1320       S  0.59804767  0.44987166  0.36715671    -0.24700
H1321       H  0.62622647  0.46417077  0.32029403     0.20300
S1322       S  0.62875344  0.56219205  0.31717310    -0.30400
H1323       H  0.60104657  0.54786097  0.36417697     0.10600
C1324       C  0.60652285  0.50305353  0.41598718     0.03800
C1325       C  0.59693656  0.50719048  0.44187798    -0.12700
C1326       C  0.57046564  0.51467187  0.44655049    -0.08300
C1327       C  0.55328614  0.51758149  0.42438985     0.07300
C1328       C  0.56286654  0.51316830  0.39860557    -0.13400
S1329       S  0.64096492  0.49471499  0.41077289    -0.30300
H1330       H  0.61026486  0.50492434  0.45857902     0.11500
S1331       S  0.51959104  0.52893940  0.42722756    -0.27400
H1332       H  0.54981511  0.51612273  0.38175943     0.08700
H1333       H  0.63134285  0.55434654  0.29051663     0.27200
H1334       H  0.64843462  0.49449693  0.43770380     0.22000
H1335       H  0.52602419  0.54985654  0.44443137     0.27300
H1336       H  0.57595057  0.45811969  0.38197921     0.16100
C1337       C  0.51673010  0.35572179  0.59357036    -0.11200
C1338       C  0.49281995  0.36957633  0.59127875     0.15400
C1339       C  0.46928971  0.35827741  0.60141544     0.02300
C1340       C  0.47058257  0.33446958  0.61541955    -0.15500
C1341       C  0.49483222  0.32148441  0.61922891    -0.10300
C1342       C  0.51800474  0.33181401  0.60734150     0.09000
C1343       C  0.49406484  0.39730736  0.58220775     0.10000
S1344       S  0.43745738  0.37420876  0.59884826    -0.24700
H1345       H  0.45278550  0.32668080  0.62459952     0.20300
S1346       S  0.55023203  0.31697477  0.61134836    -0.30400
H1347       H  0.53484175  0.36438791  0.58592741     0.10600
C1348       C  0.49453362  0.41801108  0.60079026     0.03800
C1349       C  0.49815884  0.44391384  0.59198033    -0.12700
C1350       C  0.50193016  0.44987749  0.56487380    -0.08300
C1351       C  0.50050197  0.42891973  0.54617154     0.07300
C1352       C  0.49687777  0.40296656  0.55509856    -0.13400
S1353       S  0.49250673  0.41127438  0.63602869    -0.30300
H1354       H  0.49907546  0.45953105  0.60658891     0.11500
S1355       S  0.50471869  0.43341394  0.51093568    -0.27400
H1356       H  0.49666168  0.38696819  0.54083622     0.08700
H1357       H  0.54139064  0.29127800  0.61659506     0.27200
H1358       H  0.49146073  0.43762520  0.64457414     0.22000
H1359       H  0.48348326  0.45125682  0.50903447     0.27300
H1360       H  0.44341948  0.38934804  0.57624157     0.16100
C1361       C  0.60326699  0.32572391  0.99499886    -0.11200
C1362       C  0.63078742  0.32908802  0.99284077     0.15400
C1363       C  0.64105166  0.35430454  0.98707123     0.02300
C1364       C  0.62369188  0.37546024  0.98372102    -0.15500
C1365       C  0.59598540  0.37222549  0.98525464    -0.10300
C1366       C  0.58580710  0.34694252  0.99159903     0.09000
C1367       C  0.64829657  0.30590442  0.99601277     0.10000
S1368       S  0.67602777  0.36081993  0.98292201    -0.24700
H1369       H  0.63205316  0.39450230  0.97878587     0.20300
S1370       S  0.55101943  0.34039035  0.99638268    -0.30400
H1371       H  0.59534722  0.30641054  0.99962442     0.10600
C1372       C  0.66495597  0.30294942  0.01831719     0.03800
C1373       C  0.68294778  0.28191471  0.01914737    -0.12700
C1374       C  0.68448844  0.26371770  0.99819522    -0.08300
C1375       C  0.66733936  0.26640023  0.97615254     0.07300
C1376       C  0.64926206  0.28726176  0.97547073    -0.13400
S1377       S  0.66318604  0.32587043  0.04571678    -0.30300
H1378       H  0.69605978  0.27965378  0.03603020     0.11500
S1379       S  0.66783148  0.24428056  0.94807057    -0.27400
H1380       H  0.63646042  0.28954392  0.95832809     0.08700
H1381       H  0.54634047  0.36368137  0.01079605     0.27200
H1382       H  0.68313902  0.31421970  0.06128275     0.22000
H1383       H  0.69473576  0.23738771  0.94975064     0.27300
H1384       H  0.68309031  0.33575633  0.97348065     0.16100
C1385       C  0.52710276  0.33931876  0.79469092    -0.11200
C1386       C  0.50548382  0.35594838  0.79966422     0.15400
C1387       C  0.48312442  0.35484637  0.78278512     0.02300
C1388       C  0.48260982  0.33662222  0.76185592    -0.15500
C1389       C  0.50413800  0.31977796  0.75711030    -0.10300
C1390       C  0.52677787  0.32148042  0.77351182     0.09000
C1391       C  0.50707987  0.37381539  0.82287740     0.10000
S1392       S  0.45447198  0.37560886  0.78719458    -0.24700
H1393       H  0.46521393  0.33536962  0.74927863     0.20300
S1394       S  0.55564759  0.30115093  0.76861254    -0.30400
H1395       H  0.54435810  0.34021698  0.80750238     0.10600
C1396       C  0.49491325  0.36751699  0.84725569     0.03800
C1397       C  0.49957624  0.38351435  0.86957685    -0.12700
C1398       C  0.51626050  0.40573681  0.86807768    -0.08300
C1399       C  0.52784460  0.41223805  0.84321839     0.07300
C1400       C  0.52296693  0.39635265  0.82101630    -0.13400
S1401       S  0.47438484  0.33848248  0.85015796    -0.30300
H1402       H  0.49057379  0.37840085  0.88842049     0.11500
S1403       S  0.55065184  0.43922218  0.83866531    -0.27400
H1404       H  0.53248117  0.40102568  0.80227674     0.08700
H1405       H  0.55355239  0.29976022  0.74078033     0.27200
H1406       H  0.46655476  0.34256296  0.87667595     0.22000
H1407       H  0.56609888  0.43286449  0.86105187     0.27300
H1408       H  0.46751462  0.39645856  0.80009625     0.16100
C1409       C  0.56060228  0.49598695  0.09788932    -0.11200
C1410       C  0.58775308  0.49996415  0.10230259     0.15400
C1411       C  0.60510118  0.50121375  0.08036429     0.02300
C1412       C  0.59532824  0.49687159  0.05477020    -0.15500
C1413       C  0.56837597  0.49139590  0.05015575    -0.10300
C1414       C  0.55071721  0.49153491  0.07216974     0.09000
C1415       C  0.59826267  0.49935115  0.12978853     0.10000
S1416       S  0.64021857  0.50712371  0.08385205    -0.24700
H1417       H  0.60915903  0.49731075  0.03828971     0.20300
S1418       S  0.51590299  0.48409912  0.06936451    -0.30400
H1419       H  0.54725683  0.49489987  0.11474250     0.10600
C1420       C  0.59763702  0.52159512  0.14652661     0.03800
C1421       C  0.61184733  0.52121510  0.17057272    -0.12700
C1422       C  0.62657502  0.49897536  0.17806127    -0.08300
C1423       C  0.62555660  0.47610617  0.16208125     0.07300
C1424       C  0.61151396  0.47658423  0.13815953    -0.13400
S1425       S  0.58086888  0.55118749  0.13611363    -0.30300
H1426       H  0.61299209  0.53880856  0.18268446     0.11500
S1427       S  0.64362665  0.44649707  0.17000375    -0.27400
H1428       H  0.61187543  0.45942342  0.12534460     0.08700
H1429       H  0.51997846  0.46100892  0.05444912     0.27200
H1430       H  0.58321837  0.56456824  0.16049604     0.22000
H1431       H  0.64407454  0.45034834  0.19766236     0.27300
H1432       H  0.63831773  0.52302948  0.10663410     0.16100
C1433       C  0.41637249  0.39433772  0.99897585    -0.11200
C1434       C  0.39581478  0.41191675  0.99310077     0.15400
C1435       C  0.40202922  0.43817408  0.98630832     0.02300
C1436       C  0.42865606  0.44578239  0.98405022    -0.15500
C1437       C  0.44935114  0.42782310  0.98868836    -0.10300
C1438       C  0.44293935  0.40202623  0.99726395     0.09000
C1439       C  0.36839254  0.40146882  0.99309254     0.10000
S1440       S  0.37707383  0.46254495  0.97913896    -0.24700
H1441       H  0.43318900  0.46564877  0.97761962     0.20300
S1442       S  0.46753333  0.37800527  0.00664258    -0.30400
H1443       H  0.41163654  0.37429185  0.00468102     0.10600
C1444       C  0.35634878  0.39254615  0.96945045     0.03800
C1445       C  0.33228123  0.37864486  0.97080166    -0.12700
C1446       C  0.32008689  0.37349927  0.99535134    -0.08300
C1447       C  0.33149574  0.38377594  0.01882906     0.07300
C1448       C  0.35559994  0.39740777  0.01747701    -0.13400
S1449       S  0.37271245  0.39703492  0.93783333    -0.30300
H1450       H  0.32367075  0.37042134  0.95291242     0.11500
S1451       S  0.31746309  0.37806761  0.05127229    -0.27400
H1452       H  0.36495591  0.40409910  0.03566284     0.08700
H1453       H  0.48497705  0.39643575  0.01811638     0.27200
H1454       H  0.35258177  0.38588912  0.92206941     0.22000
H1455       H  0.29098107  0.37649732  0.04276375     0.27300
H1456       H  0.35668360  0.45105851  0.99423048     0.16100
C1457       C  0.90563364  0.93850799  0.50384663    -0.11200
C1458       C  0.89893584  0.91286217  0.49584129     0.15400
C1459       C  0.91849927  0.89710067  0.48375786     0.02300
C1460       C  0.94390336  0.90728845  0.47944745    -0.15500
C1461       C  0.95099895  0.93308075  0.48713216    -0.10300
C1462       C  0.93135532  0.94869427  0.49990815     0.09000
C1463       C  0.87128319  0.90302664  0.49888933     0.10000
S1464       S  0.91206120  0.86391907  0.47258052    -0.24700
H1465       H  0.95818887  0.89475625  0.46955538     0.20300
S1466       S  0.93753086  0.98156063  0.51181255    -0.30400
H1467       H  0.89068146  0.95069816  0.51319544     0.10600
C1468       C  0.86217736  0.89201252  0.52296778     0.03800
C1469       C  0.83802143  0.87808879  0.52339162    -0.12700
C1470       C  0.82266362  0.87519345  0.50024745    -0.08300
C1471       C  0.83094440  0.88792472  0.47670160     0.07300
C1472       C  0.85514211  0.90150532  0.47623337    -0.13400
S1473       S  0.88243753  0.89361837  0.55248929    -0.30300
H1474       H  0.83181876  0.86806941  0.54134694     0.11500
S1475       S  0.81284715  0.88526232  0.44595269    -0.27400
H1476       H  0.86207696  0.90991230  0.45769334     0.08700
H1477       H  0.96134612  0.97473447  0.52462289     0.27200
H1478       H  0.86336182  0.88323524  0.57001320     0.22000
H1479       H  0.78756975  0.88627672  0.45755152     0.27300
H1480       H  0.89461734  0.85725288  0.49328882     0.16100
C1481       C  0.64519704  0.89426180  0.52753524    -0.11200
C1482       C  0.63439349  0.90319049  0.50349980     0.15400
C1483       C  0.64885554  0.89967800  0.47970705     0.02300
C1484       C  0.67292864  0.88592454  0.48030562    -0.15500
C1485       C  0.68290435  0.87559224  0.50416905    -0.10300
C1486       C  0.66920058  0.88051465  0.52815138     0.09000
C1487       C  0.60684256  0.91333835  0.50391216     0.10000
S1488       S  0.63678749  0.91056563  0.44782446    -0.24700
H1489       H  0.68318608  0.88188296  0.46182027     0.20300
S1490       S  0.67989062  0.86759816  0.55977408    -0.30400
H1491       H  0.63413884  0.89686519  0.54582343     0.10600
C1492       C  0.58525082  0.89685019  0.49757761     0.03800
C1493       C  0.55926488  0.90601384  0.50136133    -0.12700
C1494       C  0.55427575  0.93132924  0.51158672    -0.08300
C1495       C  0.57611300  0.94784242  0.51770080     0.07300
C1496       C  0.60203238  0.93877912  0.51353549    -0.13400
S1497       S  0.59081468  0.86358048  0.48610544    -0.30300
H1498       H  0.54270987  0.89316080  0.49689120     0.11500
S1499       S  0.57246089  0.97968625  0.53305384    -0.27400
H1500       H  0.61864418  0.95123922  0.51893139     0.08700
H1501       H  0.70703537  0.86643195  0.55380149     0.27200
H1502       H  0.56415533  0.85752742  0.48059626     0.22000
H1503       H  0.55285489  0.97146949  0.55115808     0.27300
H1504       H  0.62091214  0.93114834  0.45752667     0.16100
C1505       C  0.65612218  0.70870277  0.53339408    -0.11200
C1506       C  0.64516216  0.69733359  0.51044948     0.15400
C1507       C  0.65224750  0.70753630  0.48528283     0.02300
C1508       C  0.67094848  0.72791929  0.48358527    -0.15500
C1509       C  0.68218234  0.73902416  0.50651776    -0.10300
C1510       C  0.67422177  0.72961000  0.53173326     0.09000
C1511       C  0.62748001  0.67408888  0.51345395     0.10000
S1512       S  0.63845683  0.69517436  0.45463226    -0.24700
H1513       H  0.67685239  0.73519545  0.46421851     0.20300
S1514       S  0.68718061  0.74272224  0.56244647    -0.30400
H1515       H  0.65074123  0.70100895  0.55275272     0.10600
C1516       C  0.63644011  0.64850604  0.50762537     0.03800
C1517       C  0.61941519  0.62697651  0.51148932    -0.12700
C1518       C  0.59347804  0.63011457  0.52155294    -0.08300
C1519       C  0.58466053  0.65605551  0.52738272     0.07300
C1520       C  0.60164650  0.67758074  0.52310038    -0.13400
S1521       S  0.66990891  0.64313944  0.49598232    -0.30300
H1522       H  0.62662107  0.60746107  0.50683300     0.11500
S1523       S  0.55254755  0.66330314  0.54117965    -0.27400
H1524       H  0.59482085  0.69727287  0.52776422     0.08700
H1525       H  0.69210696  0.76833801  0.55315977     0.27200
H1526       H  0.66863094  0.61549656  0.49475976     0.22000
H1527       H  0.55567116  0.64584428  0.56267162     0.27300
H1528       H  0.61423488  0.68653139  0.46535435     0.16100
C1529       C  0.85657694  0.71294859  0.51454694    -0.11200
C1530       C  0.85694098  0.69693134  0.49186847     0.15400
C1531       C  0.83872730  0.70163425  0.47109236     0.02300
C1532       C  0.82070687  0.72236537  0.47339478    -0.15500
C1533       C  0.82005866  0.73820514  0.49621734    -0.10300
C1534       C  0.83819345  0.73339150  0.51706731     0.09000
C1535       C  0.87600409  0.67501012  0.49063878     0.10000
S1536       S  0.83742288  0.68203781  0.44115726    -0.24700
H1537       H  0.80674998  0.72598147  0.45743242     0.20300
S1538       S  0.83887185  0.75247157  0.54731336    -0.30400
H1539       H  0.87049952  0.70925299  0.53051865     0.10600
C1540       C  0.89922931  0.67665479  0.47525885     0.03800
C1541       C  0.91478924  0.65409279  0.47172234    -0.12700
C1542       C  0.90789595  0.63009084  0.48388624    -0.08300
C1543       C  0.88603152  0.62943561  0.50153374     0.07300
C1544       C  0.87002550  0.65170439  0.50423275    -0.13400
S1545       S  0.90872344  0.70734037  0.45981328    -0.30300
H1546       H  0.93180419  0.65495298  0.45862997     0.11500
S1547       S  0.87792689  0.60124008  0.52175985    -0.27400
H1548       H  0.85260770  0.65081904  0.51682513     0.08700
H1549       H  0.81179171  0.75888137  0.54766057     0.27200
H1550       H  0.93366774  0.69890949  0.45066315     0.22000
H1551       H  0.90447007  0.59398585  0.52628581     0.27300
H1552       H  0.84663780  0.65840949  0.45228857     0.16100
C1553       C  0.52872163  0.85796792  0.89731460    -0.11200
C1554       C  0.50387693  0.86986699  0.90090138     0.15400
C1555       C  0.48080630  0.85615158  0.89299424     0.02300
C1556       C  0.48313046  0.83201181  0.87978413    -0.15500
C1557       C  0.50802283  0.82084709  0.87471927    -0.10300
C1558       C  0.53100325  0.83345481  0.88461692     0.09000
C1559       C  0.50262576  0.89794762  0.90901967     0.10000
S1560       S  0.44796487  0.86942836  0.89733344    -0.24700
H1561       H  0.46545413  0.82247910  0.87216949     0.20300
S1562       S  0.56382537  0.82038146  0.87950725    -0.30400
H1563       H  0.54649690  0.86837993  0.90335183     0.10600
C1564       C  0.50140800  0.90572562  0.93582194     0.03800
C1565       C  0.49755392  0.93243879  0.94211394    -0.12700
C1566       C  0.49466514  0.95169113  0.92211025    -0.08300
C1567       C  0.49736350  0.94379839  0.89514168     0.07300
C1568       C  0.50119440  0.91708136  0.88904811    -0.13400
S1569       S  0.50323740  0.88138772  0.96189407    -0.30300
H1570       H  0.49571813  0.93814324  0.96275814     0.11500
S1571       S  0.49624876  0.96722599  0.86807302    -0.27400
H1572       H  0.50249826  0.91082150  0.86850938     0.08700
H1573       H  0.55610850  0.79386497  0.87736912     0.27200
H1574       H  0.49879096  0.89872907  0.98323938     0.22000
H1575       H  0.50221834  0.94953736  0.84740353     0.27300
H1576       H  0.45351138  0.88323795  0.92088575     0.16100
C1577       C  0.49727868  0.59565911  0.93395535    -0.11200
C1578       C  0.50727397  0.60362349  0.90921648     0.15400
C1579       C  0.51916463  0.58474435  0.89252132     0.02300
C1580       C  0.52186895  0.55877563  0.90121981    -0.15500
C1581       C  0.51233193  0.55048382  0.92620920    -0.10300
C1582       C  0.49922268  0.56935377  0.94244605     0.09000
C1583       C  0.50595598  0.63173788  0.90119306     0.10000
S1584       S  0.53158016  0.59271166  0.85986792    -0.24700
H1585       H  0.53181132  0.54499235  0.88816714     0.20300
S1586       S  0.48425249  0.56146371  0.97395336    -0.30400
H1587       H  0.48780041  0.61004931  0.94670054     0.10600
C1588       C  0.48248400  0.64283201  0.89096073     0.03800
C1589       C  0.48340288  0.66776953  0.87885317    -0.12700
C1590       C  0.50739992  0.68168833  0.87649021    -0.08300
C1591       C  0.53052098  0.67118758  0.88827768     0.07300
C1592       C  0.52950383  0.64645382  0.90055656    -0.13400
S1593       S  0.45208409  0.62401450  0.89064764    -0.30300
H1594       H  0.46586403  0.67556333  0.86928711     0.11500
S1595       S  0.56254319  0.68677205  0.88546657    -0.27400
H1596       H  0.54759602  0.63787710  0.90827168     0.08700
H1597       H  0.47075225  0.53927227  0.96400575     0.27200
H1598       H  0.43589796  0.64395876  0.88007667     0.22000
H1599       H  0.55320218  0.71260137  0.88233675     0.27300
H1600       H  0.51096583  0.61020096  0.85350777     0.16100
C1601       C  0.49417173  0.89797812  0.67349370    -0.11200
C1602       C  0.49182555  0.87058108  0.67073556     0.15400
C1603       C  0.48446802  0.85997905  0.64586849     0.02300
C1604       C  0.48022369  0.87684082  0.62434216    -0.15500
C1605       C  0.48258228  0.90436990  0.62685607    -0.10300
C1606       C  0.48993616  0.91493397  0.65189045     0.09000
C1607       C  0.49651459  0.85355226  0.69420743     0.10000
S1608       S  0.47968898  0.82516297  0.64024972    -0.24700
H1609       H  0.47431490  0.86825046  0.60552663     0.20300
S1610       S  0.49526588  0.94957441  0.65753173    -0.30400
H1611       H  0.49980494  0.90618402  0.69256826     0.10600
C1612       C  0.51882248  0.83692426  0.69600112     0.03800
C1613       C  0.52100938  0.81942273  0.71750273    -0.12700
C1614       C  0.50128806  0.81811369  0.73718397    -0.08300
C1615       C  0.47921496  0.83516016  0.73552336     0.07300
C1616       C  0.47730424  0.85291500  0.71433251    -0.13400
S1617       S  0.54445084  0.83799748  0.67093830    -0.30300
H1618       H  0.53793573  0.80641326  0.71890802     0.11500
S1619       S  0.45242960  0.83469544  0.75925691    -0.27400
H1620       H  0.46011512  0.86561522  0.71291005     0.08700
H1621       H  0.50936949  0.95348343  0.63371395     0.27200
H1622       H  0.55979314  0.81721459  0.68112914     0.22000
H1623       H  0.45375378  0.80764274  0.76493298     0.27300
H1624       H  0.47174796  0.81870904  0.66621305     0.16100
C1625       C  0.51088208  0.59982380  0.67797789    -0.11200
C1626       C  0.50712736  0.62691191  0.67423123     0.15400
C1627       C  0.50446283  0.63678100  0.64820623     0.02300
C1628       C  0.50688415  0.61971393  0.62657219    -0.15500
C1629       C  0.51181594  0.59258780  0.62992961    -0.10300
C1630       C  0.51280614  0.58252061  0.65629912     0.09000
C1631       C  0.50774866  0.64477325  0.69751761     0.10000
S1632       S  0.49889739  0.67118959  0.64117767    -0.24700
H1633       H  0.50552847  0.62808062  0.60681928     0.20300
S1634       S  0.51697960  0.54816586  0.66404787    -0.30400
H1635       H  0.51270022  0.59215322  0.69799908     0.10600
C1636       C  0.48697126  0.64539793  0.71626146     0.03800
C1637       C  0.48770417  0.66398630  0.73689339    -0.12700
C1638       C  0.50878284  0.68191450  0.73907225    -0.08300
C1639       C  0.52990199  0.68079270  0.72069634     0.07300
C1640       C  0.52911203  0.66231170  0.70012613    -0.13400
S1641       S  0.45888036  0.62355193  0.71308559    -0.30300
H1642       H  0.47157094  0.66506776  0.75105074     0.11500
S1643       S  0.55802299  0.70278703  0.72199216    -0.27400
H1644       H  0.54513313  0.66177911  0.68577659     0.08700
H1645       H  0.49658350  0.53999539  0.64681489     0.27200
H1646       H  0.44539678  0.63207859  0.73599916     0.22000
H1647       H  0.55748654  0.70726056  0.74955277     0.27300
H1648       H  0.48440584  0.67665031  0.66440613     0.16100
C1649       C  0.90098035  0.46967042  0.84995775    -0.11200
C1650       C  0.90209274  0.49404415  0.86307302     0.15400
C1651       C  0.89164861  0.51660552  0.85052131     0.02300
C1652       C  0.87805120  0.51384565  0.82646715    -0.15500
C1653       C  0.87525143  0.48913335  0.81432690    -0.10300
C1654       C  0.88787742  0.46700983  0.82559935     0.09000
C1655       C  0.91173692  0.49452851  0.89083146     0.10000
S1656       S  0.89363251  0.54906391  0.86494847    -0.24700
H1657       H  0.86841148  0.53085618  0.81779814     0.20300
S1658       S  0.88582179  0.43452986  0.81121051    -0.30400
H1659       H  0.90923628  0.45234946  0.85941154     0.10600
C1660       C  0.89399047  0.49713965  0.91231516     0.03800
C1661       C  0.90349817  0.49468615  0.93836759    -0.12700
C1662       C  0.93031994  0.48906590  0.94355422    -0.08300
C1663       C  0.94806154  0.48678133  0.92177856     0.07300
C1664       C  0.93861361  0.48985337  0.89581277    -0.13400
S1665       S  0.85892840  0.50193954  0.90659233    -0.30300
H1666       H  0.88975291  0.49639572  0.95480230     0.11500
S1667       S  0.98239304  0.47772085  0.92530891    -0.27400
H1668       H  0.95212391  0.48744451  0.87923414     0.08700
H1669       H  0.88091233  0.44268359  0.78499446     0.27200
H1670       H  0.85120111  0.50291743  0.93343993     0.22000
H1671       H  0.97686535  0.45586081  0.94159805     0.27300
H1672       H  0.91661613  0.54445571  0.88003036     0.16100
C1673       C  0.89783334  0.47534094  0.63939430    -0.11200
C1674       C  0.89862860  0.49992801  0.62673601     0.15400
C1675       C  0.88617615  0.52181259  0.63881011     0.02300
C1676       C  0.87268210  0.51837124  0.66284730    -0.15500
C1677       C  0.87084823  0.49354407  0.67486526    -0.10300
C1678       C  0.88411396  0.47191661  0.66333595     0.09000
C1679       C  0.91013278  0.50150484  0.59980493     0.10000
S1680       S  0.88551820  0.55441290  0.62437428    -0.24700
H1681       H  0.86225181  0.53490504  0.67156250     0.20300
S1682       S  0.88235918  0.43913197  0.67696642    -0.30400
H1683       H  0.90718346  0.45851077  0.63005258     0.10600
C1684       C  0.93637706  0.50985353  0.59537048     0.03800
C1685       C  0.94532297  0.51348403  0.56917084    -0.12700
C1686       C  0.92836095  0.50918673  0.54738319    -0.08300
C1687       C  0.90252321  0.49926242  0.55208008     0.07300
C1688       C  0.89370289  0.49573194  0.57815622    -0.13400
S1689       S  0.95794599  0.51698734  0.62308886    -0.30300
H1690       H  0.96514266  0.52093450  0.56570393     0.11500
S1691       S  0.87983304  0.49053375  0.52580310    -0.27400
H1692       H  0.87363529  0.48888914  0.58166023     0.08700
H1693       H  0.87938532  0.44678041  0.70362387     0.27200
H1694       H  0.98029899  0.52408744  0.60796496     0.22000
H1695       H  0.89957405  0.48094310  0.50858178     0.27300
H1696       H  0.89344958  0.54821627  0.59841319     0.16100
C1697       C  0.70065565  0.46194561  0.83817571    -0.11200
C1698       C  0.69812819  0.48326708  0.85568516     0.15400
C1699       C  0.71649131  0.50422354  0.85450190     0.02300
C1700       C  0.73656241  0.50372260  0.83531898    -0.15500
C1701       C  0.73885894  0.48252486  0.81758080    -0.10300
C1702       C  0.72093630  0.46124895  0.81930619     0.09000
C1703       C  0.67533951  0.48338116  0.87402576     0.10000
S1704       S  0.71480701  0.53241954  0.87623292    -0.24700
H1705       H  0.75030151  0.52009337  0.83394509     0.20300
S1706       S  0.72259025  0.43307267  0.79754525    -0.30400
H1707       H  0.68653086  0.44586186  0.83906897     0.10600
C1708       C  0.65199103  0.49717903  0.86781871     0.03800
C1709       C  0.62990501  0.49478017  0.88453181    -0.12700
C1710       C  0.63047242  0.47835487  0.90703725    -0.08300
C1711       C  0.65411424  0.46459665  0.91315119     0.07300
C1712       C  0.67632519  0.46757396  0.89678837    -0.13400
S1713       S  0.64991199  0.51669382  0.83786402    -0.30300
H1714       H  0.61183946  0.50520116  0.87965809     0.11500
S1715       S  0.65669138  0.44118617  0.93995586    -0.27400
H1716       H  0.69420415  0.45658314  0.90116093     0.08700
H1717       H  0.75034377  0.43307818  0.79494856     0.27200
H1718       H  0.62321411  0.52414269  0.84071120     0.22000
H1719       H  0.63245512  0.42864818  0.93421403     0.27300
H1720       H  0.70322719  0.51927794  0.89790434     0.16100
C1721       C  0.71127932  0.51346452  0.64376613    -0.11200
C1722       C  0.69098084  0.49458490  0.64421012     0.15400
C1723       C  0.69248419  0.47341302  0.66236252     0.02300
C1724       C  0.71394058  0.47190142  0.67991687    -0.15500
C1725       C  0.73389288  0.49120708  0.68001548    -0.10300
C1726       C  0.73234489  0.51235825  0.66181875     0.09000
C1727       C  0.66725744  0.49923224  0.62756771     0.10000
S1728       S  0.66725086  0.44830411  0.66481191    -0.24700
H1729       H  0.71492020  0.45574586  0.69395202     0.20300
S1730       S  0.75576641  0.53922930  0.66155441    -0.30400
H1731       H  0.70994372  0.52996300  0.63017402     0.10600
C1732       C  0.64359842  0.50864584  0.63891201     0.03800
C1733       C  0.62173377  0.51364192  0.62255478    -0.12700
C1734       C  0.62301320  0.50997793  0.59484063    -0.08300
C1735       C  0.64679026  0.50014055  0.58358951     0.07300
C1736       C  0.66866379  0.49514828  0.60003553    -0.13400
S1737       S  0.64174684  0.51592649  0.67404362    -0.30300
H1738       H  0.60385138  0.52153458  0.63136876     0.11500
S1739       S  0.65046094  0.49297686  0.54868937    -0.27400
H1740       H  0.68689396  0.48784930  0.59135351     0.08700
H1741       H  0.76062299  0.53916047  0.68907316     0.27200
H1742       H  0.61436406  0.52104774  0.67490623     0.22000
H1743       H  0.62474552  0.48261278  0.54569947     0.27300
H1744       H  0.65839782  0.45005026  0.63839219     0.16100
loop_ 
_geom_bond_atom_site_label_1 
_geom_bond_atom_site_label_2 
_geom_bond_distance 
_geom_bond_site_symmetry_2 
_ccdc_geom_bond_type 
N1            C6   1.351       .  A
N1            C5   1.352       .  A
N1           H33   1.039       .  S
N2            C9   1.352       .  A
N2           C10   1.351       .  A
N3            C8   1.353       .  A
N3            C7   1.352       .  A
N3           H34   1.039       .  S
N4           C11   1.351       .  A
N4           C12   1.350       .  A
C5           C13   1.388       .  A
C5           C21   1.414       .  A
C6           C22   1.412       .  A
C6           C14   1.387       .  A
C7           C15   1.387       .  A
C7           C24   1.414       .  A
C8           C23   1.414       .  A
C8           C16   1.387       .  A
C9           C21   1.413       .  A
C9           C17   1.385       .  A
C10          C24   1.414       .  A
C10          C18   1.387       .  A
C11          C19   1.385       .  A
C11          C22   1.409       .  A
C12          C20   1.388       .  A
C12          C23   1.413       .  A
C13          C14   1.374       .  A
C13          H25   1.082       .  S
C14          H26   1.083       .  S
C15          C16   1.379       .  A
C15          H27   1.082       .  S
C16          H28   1.082       .  S
C17          C18   1.372       .  A
C17          H29   1.082       .  S
C18          H30   1.082       .  S
C19          C20   1.371       .  A
C19          H31   1.082       .  S
C20          H32   1.082       .  S
C21        C1725   1.490       .  S
C22        C1701   1.482       .  S
C23        C1653   1.483       .  S
C24        C1677   1.484       .  S
N35          C40   1.351       .  A
N35          C39   1.353       .  A
N35          H67   1.039       .  S
N36          C43   1.354       .  A
N36          C44   1.351       .  A
N37          C42   1.356       .  A
N37          C41   1.354       .  A
N37          H68   1.039       .  S
N38          C45   1.352       .  A
N38          C46   1.351       .  A
C39          C47   1.388       .  A
C39          C55   1.414       .  A
C40          C56   1.412       .  A
C40          C48   1.387       .  A
C41          C49   1.388       .  A
C41          C58   1.420       .  A
C42          C57   1.419       .  A
C42          C50   1.386       .  A
C43          C55   1.414       .  A
C43          C51   1.384       .  A
C44          C58   1.418       .  A
C44          C52   1.389       .  A
C45          C53   1.385       .  A
C45          C56   1.411       .  A
C46          C54   1.387       .  A
C46          C57   1.414       .  A
C47          C48   1.375       .  A
C47          H59   1.083       .  S
C48          H60   1.083       .  S
C49          C50   1.381       .  A
C49          H61   1.082       .  S
C50          H62   1.082       .  S
C51          C52   1.373       .  A
C51          H63   1.082       .  S
C52          H64   1.082       .  S
C53          C54   1.370       .  A
C53          H65   1.082       .  S
C54          H66   1.081       .  S
C55        C1614   1.492       .  S
C56        C1638   1.484       .  S
C57        C1590   1.492       .  S
C58        C1557   1.490       .  S
N69          C74   1.352       .  A
N69          C73   1.355       .  A
N69         H101   1.036       .  S
N70          C77   1.354       .  A
N70          C78   1.351       .  A
N71          C76   1.356       .  A
N71          C75   1.354       .  A
N71         H102   1.035       .  S
N72          C79   1.353       .  A
N72          C80   1.353       .  A
C73          C81   1.387       .  A
C73          C89   1.417       .  A
C74          C90   1.417       .  A
C74          C82   1.388       .  A
C75          C83   1.387       .  A
C75          C92   1.421       .  A
C76          C91   1.420       .  A
C76          C84   1.387       .  A
C77          C89   1.415       .  A
C77          C85   1.384       .  A
C78          C92   1.419       .  A
C78          C86   1.389       .  A
C79          C87   1.386       .  A
C79          C90   1.415       .  A
C80          C88   1.387       .  A
C80          C91   1.418       .  A
C81          C82   1.374       .  A
C81          H93   1.082       .  S
C82          H94   1.082       .  S
C83          C84   1.379       .  A
C83          H95   1.082       .  S
C84          H96   1.082       .  S
C85          C86   1.370       .  A
C85          H97   1.082       .  S
C86          H98   1.082       .  S
C87          C88   1.371       .  A
C87          H99   1.082       .  S
C88         H100   1.082       .  S
C89        C1509   1.492       .  S
C90        C1533   1.485       .  S
C91        C1470   1.495       .  S
C92        C1485   1.488       .  S
O103        C119   1.275       .  A
O103       Zn109   2.025       .  S
C104       C1413   1.491       .  S
C104        O120   1.276       .  A
C104        O117   1.275       .  A
O105        C118   1.275       .  A
O105       Cd112   2.084       .  S
O106        C124   1.279       .  A
O106       Cd115   2.082       .  S
O107        C121   1.276       .  A
O107       Cd111   2.064       .  S
O108        C119   1.274       .  A
O108       Cd111   2.054       .  S
Zn109       O120   2.016   1_556  S
Zn109       O122   2.010       .  S
Zn109       O114   1.932       .  S
O110        C121   1.277       .  A
O110       Cd115   2.093       .  S
Cd111       O113   2.073       .  S
Cd111       O114   1.985       .  S
Cd112       O116   2.077       .  S
Cd112       O125   2.063       .  S
Cd112       O114   1.996       .  S
O113        C123   1.274       .  A
O114       Cd115   2.000       .  S
Cd115       O117   2.084   1_556  S
O116        C123   1.275       .  A
C118       C1365   1.492       .  S
C118        O122   1.274       .  A
C119       C1710   1.480       .  S
C121       C1581   1.499       .  S
C123       C1398   1.488       .  S
C124       C1437   1.483       .  S
C124        O125   1.276       .  A
O126        C142   1.277       .  A
O126       Zn132   2.049       .  S
C127       C1293   1.490       .  S
C127        O143   1.275       .  A
C127        O140   1.278       .  A
O128        C141   1.274       .  A
O128       Cd135   2.082       .  S
O129        C147   1.277       .  A
O129       Cd138   2.090       .  S
O130        C144   1.278       .  A
O130       Cd134   2.081       .  S
O131        C142   1.275       .  A
O131       Cd134   2.063       .  S
Zn132       O143   2.017       .  S
Zn132       O145   2.017       .  S
Zn132       O137   1.938       .  S
O133        C144   1.278       .  A
O133       Cd138   2.089       .  S
Cd134       O136   2.080       .  S
Cd134       O137   1.993       .  S
Cd135       O139   2.060       .  S
Cd135       O148   2.064       .  S
Cd135       O137   1.994       .  S
O136        C146   1.276       .  A
O137       Cd138   2.003       .  S
Cd138       O140   2.084       .  S
O139        C146   1.274       .  A
C141       C1629   1.499       .  S
C141        O145   1.275       .  A
C142       C1518   1.500       .  S
C144       C1326   1.493       .  S
C146       C1734   1.487       .  S
C147       C1350   1.497       .  S
C147        O148   1.277       .  A
O149        C165   1.275       .  A
O149       Zn155   2.025       .  S
C150       C1494   1.488       .  S
C150        O166   1.275       .  A
C150        O163   1.279       .  A
O151        C164   1.276       .  A
O151       Cd158   2.083       .  S
O152        C170   1.278       .  A
O152       Cd161   2.088   1_545  S
O153        C167   1.276       .  A
O153       Cd157   2.067       .  S
O154        C165   1.273       .  A
O154       Cd157   2.056       .  S
Zn155       O166   2.018       .  S
Zn155       O168   2.006       .  S
Zn155       O160   1.941       .  S
O156        C167   1.278       .  A
O156       Cd161   2.084       .  S
Cd157       O159   2.088       .  S
Cd157       O160   1.997       .  S
Cd158       O162   2.060       .  S
Cd158       O171   2.082   1_565  S
Cd158       O160   1.997       .  S
O159        C169   1.277       .  A
O160       Cd161   1.998       .  S
Cd161       O163   2.095       .  S
O162        C169   1.273       .  A
C164       C1605   1.490       .  S
C164        O168   1.274       .  A
C165       C1221   1.477       .  S
C167       C1197   1.485       .  S
C169       C1245   1.484       .  S
C170       C1278   1.488       .  S
C170        O171   1.278       .  A
N172        C177   1.353       .  A
N172        C176   1.353       .  A
N172        H204   1.038       .  S
N173        C180   1.353       .  A
N173        C181   1.352       .  A
N174        C179   1.355       .  A
N174        C178   1.354       .  A
N174        H205   1.037       .  S
N175        C182   1.352       .  A
N175        C183   1.351       .  A
C176        C184   1.387       .  A
C176        C192   1.414       .  A
C177        C193   1.415       .  A
C177        C185   1.387       .  A
C178        C186   1.387       .  A
C178        C195   1.419       .  A
C179        C194   1.419       .  A
C179        C187   1.386       .  A
C180        C192   1.413       .  A
C180        C188   1.385       .  A
C181        C195   1.417       .  A
C181        C189   1.389       .  A
C182        C190   1.385       .  A
C182        C193   1.412       .  A
C183        C191   1.388       .  A
C183        C194   1.416       .  A
C184        C185   1.375       .  A
C184        H196   1.082       .  S
C185        H197   1.082       .  S
C186        C187   1.380       .  A
C186        H198   1.082       .  S
C187        H199   1.082       .  S
C188        C189   1.372       .  A
C188        H200   1.082       .  S
C189        H201   1.082       .  S
C190        C191   1.369       .  A
C190        H202   1.082       .  S
C191        H203   1.082       .  S
C192       C1389   1.488       .  S
C193       C1173   1.489       .  S
C194       C1269   1.491       .  S
C195       C1341   1.489       .  S
O206        C222   1.278       .  A
O206       Zn212   2.044       .  S
C207       C1158   1.486       .  S
C207        O223   1.278       .  A
C207        O220   1.278       .  A
O208        C221   1.276       .  A
O208       Cd215   2.082       .  S
O209        C227   1.279       .  A
O209       Cd218   2.093   1_565  S
O210        C224   1.276       .  A
O210       Cd214   2.068   1_554  S
O211        C222   1.275       .  A
O211       Cd214   2.065       .  S
Zn212       O223   2.039       .  S
Zn212       O225   2.022       .  S
Zn212       O217   1.949       .  S
O213        C224   1.279       .  A
O213       Cd218   2.097   1_554  S
Cd214       O216   2.087       .  S
Cd214       O217   1.996       .  S
Cd215       O219   2.064       .  S
Cd215       O228   2.075   1_545  S
Cd215       O217   1.997       .  S
O216        C226   1.277       .  A
O217       Cd218   2.003       .  S
Cd218       O220   2.081       .  S
O219        C226   1.273       .  A
C221       C1182   1.485       .  S
C221        O225   1.275       .  A
C222       C1134   1.490       .  S
C224       C1077   1.486       .  S
C226       C1101   1.489       .  S
C227       C1566   1.498       .  S
C227        O228   1.276       .  A
N229        C234   1.352   1_554  A
N229        C233   1.352   1_554  A
N229        H261   1.039       .  S
N230        C237   1.352       .  A
N230        C238   1.350       .  A
N231        C236   1.354       .  A
N231        C235   1.355   1_554  A
N231        H262   1.040       .  S
N232        C239   1.352       .  A
N232        C240   1.351       .  A
C233        C241   1.387       .  A
C233        C249   1.414       .  A
C234        C250   1.414   1_556  A
C234        C242   1.387       .  A
C235        C243   1.387       .  A
C235        C252   1.418   1_556  A
C236        C251   1.417       .  A
C236        C244   1.386   1_554  A
C237        C249   1.413   1_554  A
C237        C245   1.385       .  A
C238        C252   1.415       .  A
C238        C246   1.388       .  A
C239        C247   1.384       .  A
C239        C250   1.411       .  A
C240        C248   1.388       .  A
C240        C251   1.415       .  A
C241        C242   1.375       .  A
C241        H253   1.082       .  S
C242        H254   1.083       .  S
C243        C244   1.381       .  A
C243        H255   1.082       .  S
C244        H256   1.082       .  S
C245        C246   1.374       .  A
C245        H257   1.082       .  S
C246        H258   1.082       .  S
C247        C248   1.372       .  A
C247        H259   1.082       .  S
C248        H260   1.082       .  S
C249       C1374   1.487       .  S
C250       C1053   1.488       .  S
C251       C1029   1.487       .  S
C252       C1149   1.490   1_554  S
N263        C268   1.353       .  A
N263        C267   1.352       .  A
N263        H295   1.038       .  S
N264        C271   1.353       .  A
N264        C272   1.352       .  A
N265        C270   1.354       .  A
N265        C269   1.356       .  A
N265        H296   1.036       .  S
N266        C273   1.352       .  A
N266        C274   1.351       .  A
C267        C275   1.386       .  A
C267        C283   1.413       .  A
C268        C284   1.416       .  A
C268        C276   1.388       .  A
C269        C277   1.386   1_565  A
C269        C286   1.421       .  A
C270        C285   1.421       .  A
C270        C278   1.387   1_565  A
C271        C283   1.412       .  A
C271        C279   1.384       .  A
C272        C286   1.418       .  A
C272        C280   1.388       .  A
C273        C281   1.385       .  A
C273        C284   1.413       .  A
C274        C282   1.389       .  A
C274        C285   1.417       .  A
C275        C276   1.374       .  A
C275        H287   1.082   1_565  S
C276        H288   1.082   1_565  S
C277        C278   1.381       .  A
C277        H289   1.082       .  S
C278        H290   1.082       .  S
C279        C280   1.369       .  A
C279        H291   1.082       .  S
C280        H292   1.080       .  S
C281        C282   1.370       .  A
C281        H293   1.082       .  S
C282        H294   1.082       .  S
C283       C1254   1.488       .  S
C284       C1110   1.485       .  S
C285        C990   1.489       .  S
C286       C1014   1.495       .  S
N297        C302   1.354       .  A
N297        C301   1.353       .  A
N297        H329   1.039       .  S
N298        C305   1.352       .  A
N298        C306   1.352       .  A
N299        C304   1.355       .  A
N299        C303   1.355       .  A
N299        H330   1.039       .  S
N300        C307   1.353       .  A
N300        C308   1.351       .  A
C301        C309   1.388       .  A
C301        C317   1.417       .  A
C302        C318   1.414       .  A
C302        C310   1.386       .  A
C303        C311   1.387       .  A
C303        C320   1.419       .  A
C304        C319   1.418       .  A
C304        C312   1.386       .  A
C305        C317   1.413       .  A
C305        C313   1.385       .  A
C306        C320   1.417       .  A
C306        C314   1.389       .  A
C307        C315   1.384       .  A
C307        C318   1.413       .  A
C308        C316   1.388       .  A
C308        C319   1.417       .  A
C309        C310   1.374       .  A
C309        H321   1.082   1_455  S
C310        H322   1.082   1_455  S
C311        C312   1.380       .  A
C311        H323   1.082   1_455  S
C312        H324   1.082   1_455  S
C313        C314   1.372       .  A
C313        H325   1.082       .  S
C314        H326   1.082       .  S
C315        C316   1.371       .  A
C315        H327   1.082       .  S
C316        H328   1.081       .  S
C317        C942   1.491       .  S
C318        C957   1.490       .  S
C319        C894   1.491       .  S
C320        C918   1.493       .  S
N331        C336   1.352       .  A
N331        C335   1.352       .  A
N331        H363   1.037       .  S
N332        C339   1.353       .  A
N332        C340   1.352       .  A
N333        C338   1.355       .  A
N333        C337   1.354       .  A
N333        H364   1.038       .  S
N334        C341   1.351       .  A
N334        C342   1.350       .  A
C335        C343   1.388       .  A
C335        C351   1.415       .  A
C336        C352   1.414       .  A
C336        C344   1.386       .  A
C337        C345   1.387       .  A
C337        C354   1.418       .  A
C338        C353   1.416       .  A
C338        C346   1.386       .  A
C339        C351   1.415       .  A
C339        C347   1.386       .  A
C340        C354   1.417       .  A
C340        C348   1.388       .  A
C341        C349   1.386       .  A
C341        C352   1.412       .  A
C342        C350   1.387       .  A
C342        C353   1.412       .  A
C343        C344   1.374       .  A
C343        H355   1.082       .  S
C344        H356   1.082       .  S
C345        C346   1.378       .  A
C345        H357   1.082       .  S
C346        H358   1.082       .  S
C347        C348   1.370       .  A
C347        H359   1.082       .  S
C348        H360   1.082       .  S
C349        C350   1.371       .  A
C349        H361   1.082       .  S
C350        H362   1.082       .  S
C351        C861   1.487       .  S
C352       C1230   1.487       .  S
C353       C1302   1.487       .  S
C354        C837   1.488       .  S
N365        C370   1.352       .  A
N365        C369   1.351       .  A
N365        H397   1.039       .  S
N366        C373   1.352       .  A
N366        C374   1.351       .  A
N367        C372   1.355       .  A
N367        C371   1.354       .  A
N367        H398   1.037       .  S
N368        C375   1.351       .  A
N368        C376   1.350       .  A
C369        C377   1.387       .  A
C369        C385   1.412       .  A
C370        C386   1.411       .  A
C370        C378   1.386       .  A
C371        C379   1.387       .  A
C371        C388   1.419       .  A
C372        C387   1.418       .  A
C372        C380   1.386       .  A
C373        C385   1.413       .  A
C373        C381   1.385       .  A
C374        C388   1.417       .  A
C374        C382   1.389       .  A
C375        C383   1.384       .  A
C375        C386   1.409       .  A
C376        C384   1.388       .  A
C376        C387   1.414       .  A
C377        C378   1.375       .  A
C377        H389   1.082       .  S
C378        H390   1.082       .  S
C379        C380   1.379       .  A
C379        H391   1.082       .  S
C380        H392   1.082       .  S
C381        C382   1.371       .  A
C381        H393   1.082       .  S
C382        H394   1.082       .  S
C383        C384   1.371       .  A
C383        H395   1.082       .  S
C384        H396   1.082       .  S
C385        C789   1.486       .  S
C386        C813   1.484       .  S
C387       C1422   1.488       .  S
C388       C1317   1.488       .  S
O399        C415   1.275       .  A
O399       Zn405   2.028       .  S
C400       C1686   1.482       .  S
C400        O416   1.275       .  A
C400        O413   1.277       .  A
O401        C414   1.273       .  A
O401       Cd408   2.058       .  S
O402        C420   1.278       .  A
O402       Cd411   2.089   1_455  S
O403        C417   1.275       .  A
O403       Cd407   2.054       .  S
O404        C415   1.272       .  A
O404       Cd407   2.053       .  S
Zn405       O416   2.013       .  S
Zn405       O418   2.014       .  S
Zn405       O410   1.937       .  S
O406        C417   1.275       .  A
O406       Cd411   2.079       .  S
Cd407       O409   2.076       .  S
Cd407       O410   1.990       .  S
Cd408       O412   2.063       .  S
Cd408       O421   2.058   1_655  S
Cd408       O410   1.986       .  S
O409        C419   1.274       .  A
O410       Cd411   2.000       .  S
Cd411       O413   2.080       .  S
O412        C419   1.275       .  A
C414       C1542   1.480       .  S
C414        O418   1.274       .  A
C415        C798   1.477       .  S
C417        C765   1.485       .  S
C419        C933   1.484       .  S
C420        C846   1.483       .  S
C420        O421   1.274       .  A
O422        C438   1.276       .  A
O422       Zn428   2.029       .  S
C423       C1461   1.506       .  S
C423        O439   1.278       .  A
C423        O436   1.280       .  A
O424        C437   1.277       .  A
O424       Cd431   2.085       .  S
O425        C443   1.281       .  A
O425       Cd434   2.097   1_545  S
O426        C440   1.279       .  A
O426       Cd430   2.077       .  S
O427        C438   1.274       .  A
O427       Cd430   2.059       .  S
Zn428       O439   2.023   1_455  S
Zn428       O441   2.010       .  S
Zn428       O433   1.931       .  S
O429        C440   1.279       .  A
O429       Cd434   2.105       .  S
Cd430       O432   2.087       .  S
Cd430       O433   1.987       .  S
Cd431       O435   2.076       .  S
Cd431       O444   2.066   1_565  S
Cd431       O433   1.995       .  S
O432        C442   1.276       .  A
O433       Cd434   1.997       .  S
Cd434       O436   2.114   1_455  S
O435        C442   1.276       .  A
C437        C966   1.491       .  S
C437        O441   1.274       .  A
C438        C870   1.485       .  S
C440       C1005   1.505       .  S
C442        C741   1.500       .  S
C443        C726   1.488       .  S
C443        O444   1.276       .  A
O445        C461   1.273       .  A
O445       Zn451   2.026       .  S
C446        C669   1.490       .  S
C446        O462   1.274       .  A
C446        O459   1.279       .  A
O447        C460   1.274       .  A
O447       Cd454   2.069       .  S
O448        C466   1.279       .  A
O448       Cd457   2.098       .  S
O449        C463   1.276       .  A
O449       Cd453   2.062   1_556  S
O450        C461   1.273       .  A
O450       Cd453   2.060       .  S
Zn451       O462   2.009   1_655  S
Zn451       O464   2.016       .  S
Zn451       O456   1.934       .  S
O452        C463   1.277       .  A
O452       Cd457   2.080   1_556  S
Cd453       O455   2.072       .  S
Cd453       O456   1.989       .  S
Cd454       O458   2.065       .  S
Cd454       O467   2.067       .  S
Cd454       O456   1.990       .  S
O455        C465   1.274       .  A
O456       Cd457   1.999       .  S
Cd457       O459   2.092   1_655  S
O458        C465   1.275       .  A
C460        C693   1.472       .  S
C460        O464   1.274       .  A
C461       C1062   1.492       .  S
C463       C1662   1.487       .  S
C465        C822   1.488       .  S
C466        C909   1.486       .  S
C466        O467   1.275       .  A
N468        C473   1.355       .  A
N468        C472   1.354       .  A
N468        H500   1.036       .  S
N469        C476   1.354       .  A
N469        C477   1.353       .  A
N470        C475   1.354       .  A
N470        C474   1.353       .  A
N470        H501   1.035       .  S
N471        C478   1.353       .  A
N471        C479   1.352       .  A
C472        C480   1.387   1_565  A
C472        C488   1.418       .  A
C473        C489   1.420       .  A
C473        C481   1.388   1_565  A
C474        C482   1.387   1_565  A
C474        C491   1.418       .  A
C475        C490   1.418       .  A
C475        C483   1.387   1_565  A
C476        C488   1.415       .  A
C476        C484   1.385       .  A
C477        C491   1.418       .  A
C477        C485   1.388       .  A
C478        C486   1.386       .  A
C478        C489   1.415       .  A
C479        C487   1.388       .  A
C479        C490   1.418       .  A
C480        C481   1.374       .  A
C480        H492   1.083       .  S
C481        H493   1.082       .  S
C482        C483   1.378       .  A
C482        H494   1.082       .  S
C483        H495   1.082       .  S
C484        C485   1.371       .  A
C484        H496   1.082       .  S
C485        H497   1.082       .  S
C486        C487   1.370       .  A
C486        H498   1.082       .  S
C487        H499   1.082       .  S
C488        C750   1.491       .  S
C489        C654   1.493       .  S
C490       C1086   1.489       .  S
C491       C1206   1.488       .  S
O502        C518   1.275       .  A
O502       Zn508   2.012       .  S
C503       C1038   1.493       .  S
C503        O519   1.275       .  A
C503        O516   1.277       .  A
O504        C517   1.274       .  A
O504       Cd511   2.064       .  S
O505        C523   1.278       .  A
O505       Cd514   2.088   1_565  S
O506        C520   1.275       .  A
O506       Cd510   2.060   1_556  S
O507        C518   1.274       .  A
O507       Cd510   2.060       .  S
Zn508       O519   2.007   1_455  S
Zn508       O521   2.011       .  S
Zn508       O513   1.928       .  S
O509        C520   1.278       .  A
O509       Cd514   2.088   1_556  S
Cd510       O512   2.077       .  S
Cd510       O513   1.990       .  S
Cd511       O515   2.057       .  S
Cd511       O524   2.060   1_545  S
Cd511       O513   1.985       .  S
O512        C522   1.275       .  A
O513       Cd514   1.997       .  S
Cd514       O516   2.089   1_455  S
O515        C522   1.272       .  A
C517        C630   1.480       .  S
C517        O521   1.272       .  A
C518        C597   1.479       .  S
C520        C981   1.479       .  S
C522        C645   1.473       .  S
C523        C885   1.488       .  S
C523        O524   1.276       .  A
N525        C530   1.354       .  A
N525        C529   1.352       .  A
N525        H557   1.037       .  S
N526        C533   1.352       .  A
N526        C534   1.352       .  A
N527        C532   1.353   1_455  A
N527        C531   1.356   1_455  A
N527        H558   1.031       .  S
N528        C535   1.352       .  A
N528        C536   1.349       .  A
C529        C537   1.387   1_455  A
C529        C545   1.413       .  A
C530        C546   1.414       .  A
C530        C538   1.387   1_455  A
C531        C539   1.386       .  A
C531        C548   1.417   1_655  A
C532        C547   1.416       .  A
C532        C540   1.387       .  A
C533        C545   1.412       .  A
C533        C541   1.385       .  A
C534        C548   1.415       .  A
C534        C542   1.387       .  A
C535        C543   1.384       .  A
C535        C546   1.410       .  A
C536        C544   1.389       .  A
C536        C547   1.415   1_455  A
C537        C538   1.374       .  A
C537        H549   1.082       .  S
C538        H550   1.082       .  S
C539        C540   1.379       .  A
C539        H551   1.082       .  S
C540        H552   1.082       .  S
C541        C542   1.370       .  A
C541        H553   1.082       .  S
C542        H554   1.082       .  S
C543        C544   1.370       .  A
C543        H555   1.082       .  S
C544        H556   1.082       .  S
C545        C621   1.484       .  S
C546        C702   1.490       .  S
C547        C774   1.481       .  S
C548        C717   1.491   1_455  S
N559        C564   1.354   1_554  A
N559        C563   1.353   1_554  A
N559        H591   1.038       .  S
N560        C567   1.352       .  A
N560        C568   1.351       .  A
N561        C566   1.354       .  A
N561        C565   1.354       .  A
N561        H592   1.036   1_556  S
N562        C569   1.353   1_556  A
N562        C570   1.352   1_556  A
C563        C571   1.387       .  A
C563        C579   1.414   1_556  A
C564        C580   1.417       .  A
C564        C572   1.388       .  A
C565        C573   1.387       .  A
C565        C582   1.419       .  A
C566        C581   1.419       .  A
C566        C574   1.387       .  A
C567        C579   1.412       .  A
C567        C575   1.385       .  A
C568        C582   1.417   1_554  A
C568        C576   1.389       .  A
C569        C577   1.384       .  A
C569        C580   1.414   1_554  A
C570        C578   1.388       .  A
C570        C581   1.418   1_554  A
C571        C572   1.374       .  A
C571        H583   1.082       .  S
C572        H584   1.082       .  S
C573        C574   1.380       .  A
C573        H585   1.082       .  S
C574        H586   1.082       .  S
C575        C576   1.371       .  A
C575        H587   1.082       .  S
C576        H588   1.082       .  S
C577        C578   1.372       .  A
C577        H589   1.082       .  S
C578        H590   1.082       .  S
C579        C606   1.486       .  S
C580       C1125   1.492       .  S
C581       C1446   1.491       .  S
C582        C678   1.489       .  S
C593        C594   1.402   1_556  A
C593        C598   1.397       .  A
C593        H603   1.084       .  S
C594        C595   1.412       .  A
C594        C599   1.478       .  S
C595        C596   1.398       .  A
C595        S600   1.806       .  S
C596        C597   1.406       .  A
C596        H601   1.084       .  S
C597        C598   1.415   1_554  A
C598        S602   1.804       .  S
C599        C604   1.411       .  A
C599        C608   1.401   1_554  A
S600        H616   1.404       .  S
S602        H613   1.407       .  S
C604        C605   1.403       .  A
C604        S609   1.807       .  S
C605        C606   1.403       .  A
C605        H610   1.083       .  S
C606        C607   1.412   1_554  A
C607        C608   1.398       .  A
C607        S611   1.803       .  S
C608        H612   1.084       .  S
S609        H614   1.407       .  S
S611        H615   1.405       .  S
C617        C618   1.402   1_655  A
C617        C622   1.398       .  A
C617        H627   1.084       .  S
C618        C619   1.414       .  A
C618        C623   1.477       .  S
C619        C620   1.398       .  A
C619        S624   1.806       .  S
C620        C621   1.401       .  A
C620        H625   1.084       .  S
C621        C622   1.411   1_455  A
C622        S626   1.803       .  S
C623        C628   1.408       .  A
C623        C632   1.401       .  A
S624        H640   1.405       .  S
S626        H637   1.406       .  S
C628        C629   1.402       .  A
C628        S633   1.806       .  S
C629        C630   1.406       .  A
C629        H634   1.083       .  S
C630        C631   1.415       .  A
C631        C632   1.402       .  A
C631        S635   1.809   1_455  S
C632        H636   1.083   1_455  S
S633        H638   1.407       .  S
S635        H639   1.407       .  S
C641        C642   1.401       .  A
C641        C646   1.396       .  A
C641        H651   1.084       .  S
C642        C643   1.413   1_545  A
C642        C647   1.479       .  S
C643        C644   1.403   1_565  A
C643        S648   1.803       .  S
C644        C645   1.403       .  A
C644        H649   1.084   1_545  S
C645        C646   1.413       .  A
C646        S650   1.806       .  S
C647        C652   1.408       .  A
C647        C656   1.402   1_545  A
S648        H664   1.405       .  S
S650        H661   1.407       .  S
C652        C653   1.401       .  A
C652        S657   1.807       .  S
C653        C654   1.405   1_545  A
C653        H658   1.083       .  S
C654        C655   1.414       .  A
C655        C656   1.401       .  A
C655        S659   1.802       .  S
C656        H660   1.084       .  S
S657        H662   1.407       .  S
S659        H663   1.406       .  S
C665        C666   1.400       .  A
C665        C670   1.399   1_556  A
C665        H675   1.084       .  S
C666        C667   1.410       .  A
C666        C671   1.482       .  S
C667        C668   1.402   1_556  A
C667        S672   1.803       .  S
C668        C669   1.408       .  A
C668        H673   1.083       .  S
C669        C670   1.420       .  A
C670        S674   1.804       .  S
C671        C676   1.411   1_556  A
C671        C680   1.401       .  A
S672        H688   1.406       .  S
S674        H685   1.407   1_554  S
C676        C677   1.405       .  A
C676        S681   1.806       .  S
C677        C678   1.404   1_554  A
C677        H682   1.083       .  S
C678        C679   1.412       .  A
C679        C680   1.399       .  A
C679        S683   1.801       .  S
C680        H684   1.084       .  S
S681        H686   1.407       .  S
S683        H687   1.405       .  S
C689        C690   1.402       .  A
C689        C694   1.398       .  A
C689        H699   1.084       .  S
C690        C691   1.414   1_655  A
C690        C695   1.482       .  S
C691        C692   1.401   1_455  A
C691        S696   1.804       .  S
C692        C693   1.402       .  A
C692        H697   1.084   1_655  S
C693        C694   1.413       .  A
C694        S698   1.805       .  S
C695        C700   1.411       .  A
C695        C704   1.402   1_655  A
S696        H712   1.406       .  S
S698        H709   1.407       .  S
C700        C701   1.403       .  A
C700        S705   1.807       .  S
C701        C702   1.404   1_655  A
C701        H706   1.083       .  S
C702        C703   1.413       .  A
C703        C704   1.399       .  A
C703        S707   1.803       .  S
C704        H708   1.084       .  S
S705        H710   1.407       .  S
S707        H711   1.406       .  S
C713        C714   1.403   1_655  A
C713        C718   1.401       .  A
C713        H723   1.084       .  S
C714        C715   1.414       .  A
C714        C719   1.486       .  S
C715        C716   1.402       .  A
C715        S720   1.803       .  S
C716        C717   1.403   1_455  A
C716        H721   1.084       .  S
C717        C718   1.414       .  A
C718        S722   1.802       .  S
C719        C724   1.409   1_455  A
C719        C728   1.401       .  A
S720        H736   1.406       .  S
S722        H733   1.405       .  S
C724        C725   1.407       .  A
C724        S729   1.804       .  S
C725        C726   1.407   1_655  A
C725        H730   1.082       .  S
C726        C727   1.420       .  A
C727        C728   1.399       .  A
C727        S731   1.805       .  S
C728        H732   1.084       .  S
S729        H734   1.407       .  S
S731        H735   1.407       .  S
C737        C738   1.403       .  A
C737        C742   1.405       .  A
C737        H747   1.084       .  S
C738        C739   1.412   1_545  A
C738        C743   1.489       .  S
C739        C740   1.400       .  A
C739        S744   1.806       .  S
C740        C741   1.410       .  A
C740        H745   1.083       .  S
C741        C742   1.421   1_565  A
C742        S746   1.801       .  S
C743        C748   1.412       .  A
C743        C752   1.404   1_545  A
S744        H760   1.407   1_565  S
S746        H757   1.408       .  S
C748        C749   1.408       .  A
C748        S753   1.806       .  S
C749        C750   1.406   1_545  A
C749        H754   1.083       .  S
C750        C751   1.412       .  A
C751        C752   1.398       .  A
C751        S755   1.805       .  S
C752        H756   1.084       .  S
S753        H758   1.407       .  S
S755        H759   1.405       .  S
C761        C762   1.400       .  A
C761        C766   1.401       .  A
C761        H771   1.084       .  S
C762        C763   1.408   1_655  A
C762        C767   1.474       .  S
C763        C764   1.395   1_455  A
C763        S768   1.804       .  S
C764        C765   1.407       .  A
C764        H769   1.084       .  S
C765        C766   1.420       .  A
C766        S770   1.799       .  S
C767        C772   1.407   1_655  A
C767        C776   1.401       .  A
S768        H784   1.405       .  S
S770        H781   1.407   1_655  S
C772        C773   1.402       .  A
C772        S777   1.805       .  S
C773        C774   1.403   1_455  A
C773        H778   1.083       .  S
C774        C775   1.413       .  A
C775        C776   1.396       .  A
C775        S779   1.805       .  S
C776        H780   1.084       .  S
S777        H782   1.407       .  S
S779        H783   1.405       .  S
C785        C786   1.402       .  A
C785        C790   1.401       .  A
C785        H795   1.084       .  S
C786        C787   1.412       .  A
C786        C791   1.477       .  S
C787        C788   1.396       .  A
C787        S792   1.805       .  S
C788        C789   1.402       .  A
C788        H793   1.084       .  S
C789        C790   1.413       .  A
C790        S794   1.803       .  S
C791        C796   1.409       .  A
C791        C800   1.400       .  A
S792        H808   1.406       .  S
S794        H805   1.406       .  S
C796        C797   1.402       .  A
C796        S801   1.806       .  S
C797        C798   1.404       .  A
C797        H802   1.083       .  S
C798        C799   1.416       .  A
C799        C800   1.398       .  A
C799        S803   1.805       .  S
C800        H804   1.084       .  S
S801        H806   1.407       .  S
S803        H807   1.407       .  S
C809        C810   1.402       .  A
C809        C814   1.400       .  A
C809        H819   1.084       .  S
C810        C811   1.411       .  A
C810        C815   1.477       .  S
C811        C812   1.398       .  A
C811        S816   1.803       .  S
C812        C813   1.402       .  A
C812        H817   1.084       .  S
C813        C814   1.413       .  A
C814        S818   1.804       .  S
C815        C820   1.406       .  A
C815        C824   1.401       .  A
S816        H832   1.405       .  S
S818        H829   1.405       .  S
C820        C821   1.399       .  A
C820        S825   1.808       .  S
C821        C822   1.408       .  A
C821        H826   1.082       .  S
C822        C823   1.419       .  A
C823        C824   1.402       .  A
C823        S827   1.802       .  S
C824        H828   1.084       .  S
S825        H830   1.407       .  S
S827        H831   1.407       .  S
C833        C834   1.402       .  A
C833        C838   1.399       .  A
C833        H843   1.084       .  S
C834        C835   1.411       .  A
C834        C839   1.480       .  S
C835        C836   1.401       .  A
C835        S840   1.803       .  S
C836        C837   1.403       .  A
C836        H841   1.084       .  S
C837        C838   1.413       .  A
C838        S842   1.805       .  S
C839        C844   1.408       .  A
C839        C848   1.401       .  A
S840        H856   1.405       .  S
S842        H853   1.405       .  S
C844        C845   1.403       .  A
C844        S849   1.808       .  S
C845        C846   1.407       .  A
C845        H850   1.083       .  S
C846        C847   1.417       .  A
C847        C848   1.401       .  A
C847        S851   1.802       .  S
C848        H852   1.084       .  S
S849        H854   1.407       .  S
S851        H855   1.407       .  S
C857        C858   1.404       .  A
C857        C862   1.399       .  A
C857        H867   1.084       .  S
C858        C859   1.413       .  A
C858        C863   1.482       .  S
C859        C860   1.399       .  A
C859        S864   1.804       .  S
C860        C861   1.403       .  A
C860        H865   1.084       .  S
C861        C862   1.413       .  A
C862        S866   1.805       .  S
C863        C868   1.409       .  A
C863        C872   1.402       .  A
S864        H880   1.406       .  S
S866        H877   1.404       .  S
C868        C869   1.402       .  A
C868        S873   1.807       .  S
C869        C870   1.407       .  A
C869        H874   1.082       .  S
C870        C871   1.417       .  A
C871        C872   1.400       .  A
C871        S875   1.802       .  S
C872        H876   1.084       .  S
S873        H878   1.407       .  S
S875        H879   1.407       .  S
C881        C882   1.404   1_655  A
C881        C886   1.405       .  A
C881        H891   1.084       .  S
C882        C883   1.411       .  A
C882        C887   1.485       .  S
C883        C884   1.396       .  A
C883        S888   1.804       .  S
C884        C885   1.406       .  A
C884        H889   1.084       .  S
C885        C886   1.418   1_455  A
C886        S890   1.802       .  S
C887        C892   1.409   1_455  A
C887        C896   1.405       .  A
S888        H904   1.405       .  S
S890        H901   1.408       .  S
C892        C893   1.403       .  A
C892        S897   1.806       .  S
C893        C894   1.405   1_655  A
C893        H898   1.083       .  S
C894        C895   1.415       .  A
C895        C896   1.403       .  A
C895        S899   1.806       .  S
C896        H900   1.084       .  S
S897        H902   1.407       .  S
S899        H903   1.403       .  S
C905        C906   1.403       .  A
C905        C910   1.399       .  A
C905        H915   1.084       .  S
C906        C907   1.415   1_455  A
C906        C911   1.488       .  S
C907        C908   1.405       .  A
C907        S912   1.804       .  S
C908        C909   1.407       .  A
C908        H913   1.084       .  S
C909        C910   1.415   1_655  A
C910        S914   1.803       .  S
C911        C916   1.412   1_455  A
C911        C920   1.403       .  A
S912        H928   1.405       .  S
S914        H925   1.407       .  S
C916        C917   1.406       .  A
C916        S921   1.805       .  S
C917        C918   1.404   1_655  A
C917        H922   1.083       .  S
C918        C919   1.414       .  A
C919        C920   1.401       .  A
C919        S923   1.803       .  S
C920        H924   1.084       .  S
S921        H926   1.407       .  S
S923        H927   1.405       .  S
C929        C930   1.403       .  A
C929        C934   1.404       .  A
C929        H939   1.084   1_655  S
C930        C931   1.410       .  A
C930        C935   1.479       .  S
C931        C932   1.396       .  A
C931        S936   1.805       .  S
C932        C933   1.405       .  A
C932        H937   1.084       .  S
C933        C934   1.418       .  A
C934        S938   1.802   1_655  S
C935        C940   1.409   1_655  A
C935        C944   1.401       .  A
S936        H952   1.404       .  S
S938        H949   1.407       .  S
C940        C941   1.403       .  A
C940        S945   1.806       .  S
C941        C942   1.404       .  A
C941        H946   1.083       .  S
C942        C943   1.416   1_455  A
C943        C944   1.400       .  A
C943        S947   1.805       .  S
C944        H948   1.084       .  S
S945        H950   1.407       .  S
S947        H951   1.405       .  S
C953        C954   1.404       .  A
C953        C958   1.402       .  A
C953        H963   1.084       .  S
C954        C955   1.412   1_455  A
C954        C959   1.486       .  S
C955        C956   1.401       .  A
C955        S960   1.803       .  S
C956        C957   1.404   1_655  A
C956        H961   1.084       .  S
C957        C958   1.415       .  A
C958        S962   1.807       .  S
C959        C964   1.408       .  A
C959        C968   1.404       .  A
S960        H976   1.406       .  S
S962        H973   1.401       .  S
C964        C965   1.401       .  A
C964        S969   1.808       .  S
C965        C966   1.409       .  A
C965        H970   1.081       .  S
C966        C967   1.417       .  A
C967        C968   1.404       .  A
C967        S971   1.802       .  S
C968        H972   1.084       .  S
S969        H974   1.407       .  S
S971        H975   1.407   1_455  S
C977        C978   1.401   1_565  A
C977        C982   1.398       .  A
C977        H987   1.084       .  S
C978        C979   1.412       .  A
C978        C983   1.480       .  S
C979        C980   1.403       .  A
C979        S984   1.804       .  S
C980        C981   1.406       .  A
C980        H985   1.084       .  S
C981        C982   1.414   1_545  A
C982        S986   1.804       .  S
C983        C988   1.410       .  A
C983        C992   1.401   1_545  A
S984       H1000   1.405       .  S
S986        H997   1.407       .  S
C988        C989   1.404       .  A
C988        S993   1.807       .  S
C989        C990   1.404   1_545  A
C989        H994   1.083       .  S
C990        C991   1.413       .  A
C991        C992   1.400       .  A
C991        S995   1.802       .  S
C992        H996   1.084       .  S
S993        H998   1.407       .  S
S995        H999   1.404       .  S
C1001      C1002   1.401       .  A
C1001      C1006   1.407       .  A
C1001      H1011   1.084   1_565  S
C1002      C1003   1.411       .  A
C1002      C1007   1.489       .  S
C1003      C1004   1.401       .  A
C1003      S1008   1.803       .  S
C1004      C1005   1.411       .  A
C1004      H1009   1.083       .  S
C1005      C1006   1.423       .  A
C1006      S1010   1.799       .  S
C1007      C1012   1.410   1_565  A
C1007      C1016   1.403       .  A
S1008      H1024   1.403       .  S
S1010      H1021   1.408   1_565  S
C1012      C1013   1.408       .  A
C1012      S1017   1.805       .  S
C1013      C1014   1.406   1_545  A
C1013      H1018   1.083       .  S
C1014      C1015   1.413       .  A
C1015      C1016   1.402       .  A
C1015      S1019   1.802       .  S
C1016      H1020   1.084       .  S
S1017      H1022   1.407       .  S
S1019      H1023   1.405       .  S
C1025      C1026   1.403       .  A
C1025      C1030   1.401       .  A
C1025      H1035   1.084       .  S
C1026      C1027   1.411   1_554  A
C1026      C1031   1.481       .  S
C1027      C1028   1.400       .  A
C1027      S1032   1.803       .  S
C1028      C1029   1.403   1_556  A
C1028      H1033   1.084       .  S
C1029      C1030   1.414       .  A
C1030      S1034   1.805       .  S
C1031      C1036   1.407       .  A
C1031      C1040   1.400       .  A
S1032      H1048   1.405       .  S
S1034      H1045   1.405       .  S
C1036      C1037   1.401       .  A
C1036      S1041   1.808       .  S
C1037      C1038   1.410       .  A
C1037      H1042   1.082       .  S
C1038      C1039   1.421       .  A
C1039      C1040   1.403       .  A
C1039      S1043   1.801       .  S
C1040      H1044   1.084       .  S
S1041      H1046   1.407       .  S
S1043      H1047   1.407       .  S
C1049      C1050   1.402       .  A
C1049      C1054   1.396       .  A
C1049      H1059   1.084       .  S
C1050      C1051   1.413   1_554  A
C1050      C1055   1.479       .  S
C1051      C1052   1.403       .  A
C1051      S1056   1.805       .  S
C1052      C1053   1.405   1_556  A
C1052      H1057   1.084       .  S
C1053      C1054   1.412       .  A
C1054      S1058   1.804       .  S
C1055      C1060   1.406   1_554  A
C1055      C1064   1.399       .  A
S1056      H1072   1.404       .  S
S1058      H1069   1.406       .  S
C1060      C1061   1.402       .  A
C1060      S1065   1.807       .  S
C1061      C1062   1.410   1_556  A
C1061      H1066   1.082       .  S
C1062      C1063   1.421       .  A
C1063      C1064   1.401       .  A
C1063      S1067   1.801       .  S
C1064      H1068   1.084       .  S
S1065      H1070   1.407       .  S
S1067      H1071   1.406       .  S
C1073      C1074   1.401       .  A
C1073      C1078   1.398       .  A
C1073      H1083   1.084       .  S
C1074      C1075   1.413   1_565  A
C1074      C1079   1.483       .  S
C1075      C1076   1.405       .  A
C1075      S1080   1.805       .  S
C1076      C1077   1.407       .  A
C1076      H1081   1.084       .  S
C1077      C1078   1.416   1_545  A
C1078      S1082   1.804       .  S
C1079      C1084   1.412   1_565  A
C1079      C1088   1.403       .  A
S1080      H1096   1.405   1_545  S
S1082      H1093   1.407       .  S
C1084      C1085   1.404       .  A
C1084      S1089   1.807       .  S
C1085      C1086   1.402   1_545  A
C1085      H1090   1.083       .  S
C1086      C1087   1.412       .  A
C1087      C1088   1.401       .  A
C1087      S1091   1.802       .  S
C1088      H1092   1.084       .  S
S1089      H1094   1.407       .  S
S1091      H1095   1.406       .  S
C1097      C1098   1.399   1_565  A
C1097      C1102   1.397       .  A
C1097      H1107   1.084       .  S
C1098      C1099   1.411       .  A
C1098      C1103   1.480   1_545  S
C1099      C1100   1.403       .  A
C1099      S1104   1.804       .  S
C1100      C1101   1.409       .  A
C1100      H1105   1.083       .  S
C1101      C1102   1.420   1_545  A
C1102      S1106   1.804       .  S
C1103      C1108   1.410   1_565  A
C1103      C1112   1.403       .  A
S1104      H1120   1.407       .  S
S1106      H1117   1.408       .  S
C1108      C1109   1.400       .  A
C1108      S1113   1.807       .  S
C1109      C1110   1.402   1_545  A
C1109      H1114   1.083       .  S
C1110      C1111   1.413       .  A
C1111      C1112   1.400       .  A
C1111      S1115   1.805       .  S
C1112      H1116   1.084       .  S
S1113      H1118   1.407       .  S
S1115      H1119   1.404       .  S
C1121      C1122   1.402       .  A
C1121      C1126   1.401       .  A
C1121      H1131   1.084       .  S
C1122      C1123   1.413   1_556  A
C1122      C1127   1.482       .  S
C1123      C1124   1.400       .  A
C1123      S1128   1.805       .  S
C1124      C1125   1.404   1_554  A
C1124      H1129   1.084       .  S
C1125      C1126   1.415       .  A
C1126      S1130   1.805       .  S
C1127      C1132   1.407       .  A
C1127      C1136   1.402       .  A
S1128      H1144   1.404       .  S
S1130      H1141   1.405       .  S
C1132      C1133   1.401       .  A
C1132      S1137   1.808       .  S
C1133      C1134   1.409       .  A
C1133      H1138   1.082       .  S
C1134      C1135   1.418       .  A
C1135      C1136   1.404       .  A
C1135      S1139   1.802   1_556  S
C1136      H1140   1.084   1_556  S
S1137      H1142   1.407       .  S
S1139      H1143   1.407       .  S
C1145      C1146   1.404   1_554  A
C1145      C1150   1.402       .  A
C1145      H1155   1.084       .  S
C1146      C1147   1.413       .  A
C1146      C1151   1.483       .  S
C1147      C1148   1.400       .  A
C1147      S1152   1.805       .  S
C1148      C1149   1.403       .  A
C1148      H1153   1.084       .  S
C1149      C1150   1.413   1_556  A
C1150      S1154   1.804       .  S
C1151      C1156   1.408       .  A
C1151      C1160   1.403       .  A
S1152      H1168   1.404       .  S
S1154      H1165   1.403       .  S
C1156      C1157   1.406       .  A
C1156      S1161   1.805       .  S
C1157      C1158   1.408       .  A
C1157      H1162   1.083       .  S
C1158      C1159   1.415       .  A
C1159      C1160   1.401       .  A
C1159      S1163   1.802   1_556  S
C1160      H1164   1.084   1_556  S
S1161      H1166   1.407       .  S
S1163      H1167   1.407       .  S
C1169      C1170   1.403       .  A
C1169      C1174   1.401       .  A
C1169      H1179   1.084       .  S
C1170      C1171   1.412       .  A
C1170      C1175   1.480       .  S
C1171      C1172   1.399       .  A
C1171      S1176   1.804       .  S
C1172      C1173   1.403       .  A
C1172      H1177   1.084       .  S
C1173      C1174   1.413       .  A
C1174      S1178   1.804       .  S
C1175      C1180   1.409       .  A
C1175      C1184   1.399       .  A
S1176      H1192   1.405       .  S
S1178      H1189   1.405       .  S
C1180      C1181   1.408       .  A
C1180      S1185   1.805       .  S
C1181      C1182   1.408       .  A
C1181      H1186   1.083       .  S
C1182      C1183   1.417       .  A
C1183      C1184   1.397       .  A
C1183      S1187   1.804       .  S
C1184      H1188   1.084       .  S
S1185      H1190   1.407       .  S
S1187      H1191   1.407       .  S
C1193      C1194   1.401   1_545  A
C1193      C1198   1.397   1_545  A
C1193      H1203   1.084       .  S
C1194      C1195   1.412       .  A
C1194      C1199   1.481       .  S
C1195      C1196   1.403       .  A
C1195      S1200   1.804       .  S
C1196      C1197   1.408       .  A
C1196      H1201   1.084       .  S
C1197      C1198   1.416       .  A
C1198      S1202   1.803   1_565  S
C1199      C1204   1.411       .  A
C1199      C1208   1.402   1_565  A
S1200      H1216   1.405   1_565  S
S1202      H1213   1.407       .  S
C1204      C1205   1.404       .  A
C1204      S1209   1.807       .  S
C1205      C1206   1.404       .  A
C1205      H1210   1.083       .  S
C1206      C1207   1.414   1_565  A
C1207      C1208   1.399       .  A
C1207      S1211   1.805       .  S
C1208      H1212   1.084       .  S
S1209      H1214   1.406       .  S
S1211      H1215   1.403       .  S
C1217      C1218   1.400       .  A
C1217      C1222   1.397       .  A
C1217      H1227   1.084       .  S
C1218      C1219   1.411       .  A
C1218      C1223   1.474       .  S
C1219      C1220   1.400       .  A
C1219      S1224   1.805       .  S
C1220      C1221   1.405       .  A
C1220      H1225   1.084       .  S
C1221      C1222   1.415       .  A
C1222      S1226   1.804       .  S
C1223      C1228   1.408       .  A
C1223      C1232   1.401       .  A
S1224      H1240   1.405       .  S
S1226      H1237   1.407       .  S
C1228      C1229   1.399       .  A
C1228      S1233   1.807       .  S
C1229      C1230   1.402       .  A
C1229      H1234   1.083       .  S
C1230      C1231   1.412       .  A
C1231      C1232   1.402       .  A
C1231      S1235   1.806       .  S
C1232      H1236   1.083       .  S
S1233      H1238   1.407       .  S
S1235      H1239   1.407       .  S
C1241      C1242   1.401       .  A
C1241      C1246   1.398       .  A
C1241      H1251   1.084   1_565  S
C1242      C1243   1.414       .  A
C1242      C1247   1.483       .  S
C1243      C1244   1.403       .  A
C1243      S1248   1.805       .  S
C1244      C1245   1.406       .  A
C1244      H1249   1.084       .  S
C1245      C1246   1.417       .  A
C1246      S1250   1.804   1_565  S
C1247      C1252   1.412       .  A
C1247      C1256   1.402   1_565  A
S1248      H1264   1.405       .  S
S1250      H1261   1.408       .  S
C1252      C1253   1.404       .  A
C1252      S1257   1.806       .  S
C1253      C1254   1.403       .  A
C1253      H1258   1.083       .  S
C1254      C1255   1.413   1_565  A
C1255      C1256   1.399       .  A
C1255      S1259   1.804       .  S
C1256      H1260   1.084       .  S
S1257      H1262   1.407       .  S
S1259      H1263   1.405       .  S
C1265      C1266   1.402       .  A
C1265      C1270   1.400       .  A
C1265      H1275   1.084       .  S
C1266      C1267   1.413       .  A
C1266      C1271   1.486       .  S
C1267      C1268   1.403       .  A
C1267      S1272   1.802       .  S
C1268      C1269   1.405       .  A
C1268      H1273   1.084       .  S
C1269      C1270   1.413       .  A
C1270      S1274   1.803       .  S
C1271      C1276   1.410       .  A
C1271      C1280   1.401       .  A
S1272      H1288   1.405       .  S
S1274      H1285   1.404       .  S
C1276      C1277   1.406       .  A
C1276      S1281   1.807       .  S
C1277      C1278   1.406       .  A
C1277      H1282   1.083       .  S
C1278      C1279   1.418       .  A
C1279      C1280   1.403       .  A
C1279      S1283   1.803       .  S
C1280      H1284   1.084       .  S
S1281      H1286   1.407       .  S
S1283      H1287   1.408       .  S
C1289      C1290   1.401       .  A
C1289      C1294   1.402       .  A
C1289      H1299   1.083       .  S
C1290      C1291   1.410       .  A
C1290      C1295   1.483       .  S
C1291      C1292   1.402       .  A
C1291      S1296   1.803       .  S
C1292      C1293   1.409       .  A
C1292      H1297   1.083       .  S
C1293      C1294   1.418       .  A
C1294      S1298   1.809       .  S
C1295      C1300   1.412       .  A
C1295      C1304   1.401       .  A
S1296      H1312   1.406       .  S
S1298      H1309   1.407       .  S
C1300      C1301   1.406       .  A
C1300      S1305   1.806       .  S
C1301      C1302   1.403       .  A
C1301      H1306   1.083       .  S
C1302      C1303   1.413       .  A
C1303      C1304   1.398       .  A
C1303      S1307   1.804       .  S
C1304      H1308   1.084       .  S
S1305      H1310   1.407       .  S
S1307      H1311   1.405       .  S
C1313      C1314   1.403       .  A
C1313      C1318   1.400       .  A
C1313      H1323   1.084       .  S
C1314      C1315   1.413       .  A
C1314      C1319   1.483       .  S
C1315      C1316   1.401       .  A
C1315      S1320   1.803       .  S
C1316      C1317   1.403       .  A
C1316      H1321   1.084       .  S
C1317      C1318   1.413       .  A
C1318      S1322   1.804       .  S
C1319      C1324   1.409       .  A
C1319      C1328   1.400       .  A
S1320      H1336   1.405       .  S
S1322      H1333   1.405       .  S
C1324      C1325   1.405       .  A
C1324      S1329   1.808       .  S
C1325      C1326   1.409       .  A
C1325      H1330   1.082       .  S
C1326      C1327   1.420       .  A
C1327      C1328   1.402       .  A
C1327      S1331   1.801       .  S
C1328      H1332   1.084       .  S
S1329      H1334   1.406       .  S
S1331      H1335   1.408       .  S
C1337      C1338   1.402       .  A
C1337      C1342   1.400       .  A
C1337      H1347   1.084       .  S
C1338      C1339   1.413       .  A
C1338      C1343   1.482       .  S
C1339      C1340   1.401       .  A
C1339      S1344   1.804       .  S
C1340      C1341   1.404       .  A
C1340      H1345   1.084       .  S
C1341      C1342   1.413       .  A
C1342      S1346   1.804       .  S
C1343      C1348   1.407       .  A
C1343      C1352   1.401       .  A
S1344      H1360   1.405       .  S
S1346      H1357   1.404       .  S
C1348      C1349   1.400       .  A
C1348      S1353   1.808       .  S
C1349      C1350   1.410       .  A
C1349      H1354   1.082       .  S
C1350      C1351   1.422       .  A
C1351      C1352   1.404       .  A
C1351      S1355   1.800       .  S
C1352      H1356   1.084       .  S
S1353      H1358   1.407       .  S
S1355      H1359   1.407       .  S
C1361      C1362   1.403       .  A
C1361      C1366   1.403       .  A
C1361      H1371   1.084       .  S
C1362      C1363   1.411       .  A
C1362      C1367   1.482       .  S
C1363      C1364   1.397       .  A
C1363      S1368   1.807       .  S
C1364      C1365   1.409       .  A
C1364      H1369   1.083       .  S
C1365      C1366   1.419       .  A
C1366      S1370   1.802       .  S
C1367      C1372   1.410   1_556  A
C1367      C1376   1.402       .  A
S1368      H1384   1.405       .  S
S1370      H1381   1.407   1_556  S
C1372      C1373   1.403       .  A
C1372      S1377   1.806       .  S
C1373      C1374   1.404   1_554  A
C1373      H1378   1.083       .  S
C1374      C1375   1.413       .  A
C1375      C1376   1.399       .  A
C1375      S1379   1.805       .  S
C1376      H1380   1.084       .  S
S1377      H1382   1.407       .  S
S1379      H1383   1.405       .  S
C1385      C1386   1.403       .  A
C1385      C1390   1.398       .  A
C1385      H1395   1.084       .  S
C1386      C1387   1.413       .  A
C1386      C1391   1.481       .  S
C1387      C1388   1.402       .  A
C1387      S1392   1.804       .  S
C1388      C1389   1.404       .  A
C1388      H1393   1.084       .  S
C1389      C1390   1.412       .  A
C1390      S1394   1.803       .  S
C1391      C1396   1.408       .  A
C1391      C1400   1.399       .  A
S1392      H1408   1.405       .  S
S1394      H1405   1.406       .  S
C1396      C1397   1.405       .  A
C1396      S1401   1.807       .  S
C1397      C1398   1.409       .  A
C1397      H1402   1.083       .  S
C1398      C1399   1.419       .  A
C1399      C1400   1.399       .  A
C1399      S1403   1.803       .  S
C1400      H1404   1.084       .  S
S1401      H1406   1.407       .  S
S1403      H1407   1.408       .  S
C1409      C1410   1.402       .  A
C1409      C1414   1.405       .  A
C1409      H1419   1.084       .  S
C1410      C1411   1.410       .  A
C1410      C1415   1.481       .  S
C1411      C1412   1.396       .  A
C1411      S1416   1.805       .  S
C1412      C1413   1.407       .  A
C1412      H1417   1.084       .  S
C1413      C1414   1.421       .  A
C1414      S1418   1.801       .  S
C1415      C1420   1.409       .  A
C1415      C1424   1.401       .  A
S1416      H1432   1.405       .  S
S1418      H1429   1.407       .  S
C1420      C1421   1.406       .  A
C1420      S1425   1.804       .  S
C1421      C1422   1.405       .  A
C1421      H1426   1.083       .  S
C1422      C1423   1.413       .  A
C1423      C1424   1.397       .  A
C1423      S1427   1.804       .  S
C1424      H1428   1.084       .  S
S1425      H1430   1.407       .  S
S1427      H1431   1.405       .  S
C1433      C1434   1.401       .  A
C1433      C1438   1.398       .  A
C1433      H1443   1.084   1_556  S
C1434      C1435   1.412       .  A
C1434      C1439   1.481       .  S
C1435      C1436   1.402       .  A
C1435      S1440   1.803       .  S
C1436      C1437   1.407       .  A
C1436      H1441   1.084       .  S
C1437      C1438   1.416       .  A
C1438      S1442   1.804   1_556  S
C1439      C1444   1.410       .  A
C1439      C1448   1.401   1_556  A
S1440      H1456   1.405       .  S
S1442      H1453   1.407       .  S
C1444      C1445   1.405       .  A
C1444      S1449   1.806       .  S
C1445      C1446   1.404       .  A
C1445      H1450   1.083       .  S
C1446      C1447   1.413   1_556  A
C1447      C1448   1.400       .  A
C1447      S1451   1.802       .  S
C1448      H1452   1.084       .  S
S1449      H1454   1.407       .  S
S1451      H1455   1.405       .  S
C1457      C1458   1.404       .  A
C1457      C1462   1.410       .  A
C1457      H1467   1.084       .  S
C1458      C1459   1.409       .  A
C1458      C1463   1.489       .  S
C1459      C1460   1.398       .  A
C1459      S1464   1.805       .  S
C1460      C1461   1.411       .  A
C1460      H1465   1.083       .  S
C1461      C1462   1.423       .  A
C1462      S1466   1.800       .  S
C1463      C1468   1.411       .  A
C1463      C1472   1.403       .  A
S1464      H1480   1.405       .  S
S1466      H1477   1.407       .  S
C1468      C1469   1.408       .  A
C1468      S1473   1.805       .  S
C1469      C1470   1.406       .  A
C1469      H1474   1.083       .  S
C1470      C1471   1.413       .  A
C1471      C1472   1.401       .  A
C1471      S1475   1.801       .  S
C1472      H1476   1.084       .  S
S1473      H1478   1.407       .  S
S1475      H1479   1.403       .  S
C1481      C1482   1.402       .  A
C1481      C1486   1.399       .  A
C1481      H1491   1.084       .  S
C1482      C1483   1.413       .  A
C1482      C1487   1.483       .  S
C1483      C1484   1.402       .  A
C1483      S1488   1.803       .  S
C1484      C1485   1.404       .  A
C1484      H1489   1.084       .  S
C1485      C1486   1.413       .  A
C1486      S1490   1.804       .  S
C1487      C1492   1.409       .  A
C1487      C1496   1.401       .  A
S1488      H1504   1.405       .  S
S1490      H1501   1.403       .  S
C1492      C1493   1.405       .  A
C1492      S1497   1.808       .  S
C1493      C1494   1.408       .  A
C1493      H1498   1.083       .  S
C1494      C1495   1.417       .  A
C1495      C1496   1.402       .  A
C1495      S1499   1.802       .  S
C1496      H1500   1.084       .  S
S1497      H1502   1.407       .  S
S1499      H1503   1.407       .  S
C1505      C1506   1.404       .  A
C1505      C1510   1.402       .  A
C1505      H1515   1.084       .  S
C1506      C1507   1.414       .  A
C1506      C1511   1.486       .  S
C1507      C1508   1.402       .  A
C1507      S1512   1.804       .  S
C1508      C1509   1.403       .  A
C1508      H1513   1.084       .  S
C1509      C1510   1.414       .  A
C1510      S1514   1.805       .  S
C1511      C1516   1.407       .  A
C1511      C1520   1.402       .  A
S1512      H1528   1.405       .  S
S1514      H1525   1.404       .  S
C1516      C1517   1.403       .  A
C1516      S1521   1.808       .  S
C1517      C1518   1.412       .  A
C1517      H1522   1.082       .  S
C1518      C1519   1.422       .  A
C1519      C1520   1.405       .  A
C1519      S1523   1.801       .  S
C1520      H1524   1.084       .  S
S1521      H1526   1.407       .  S
S1523      H1527   1.408       .  S
C1529      C1530   1.401       .  A
C1529      C1534   1.399       .  A
C1529      H1539   1.084       .  S
C1530      C1531   1.412       .  A
C1530      C1535   1.474       .  S
C1531      C1532   1.397       .  A
C1531      S1536   1.806       .  S
C1532      C1533   1.402       .  A
C1532      H1537   1.084       .  S
C1533      C1534   1.414       .  A
C1534      S1538   1.804       .  S
C1535      C1540   1.406       .  A
C1535      C1544   1.400       .  A
S1536      H1552   1.404       .  S
S1538      H1549   1.405       .  S
C1540      C1541   1.401       .  A
C1540      S1545   1.806       .  S
C1541      C1542   1.407       .  A
C1541      H1546   1.083       .  S
C1542      C1543   1.416       .  A
C1543      C1544   1.397       .  A
C1543      S1547   1.803       .  S
C1544      H1548   1.084       .  S
S1545      H1550   1.407       .  S
S1547      H1551   1.408       .  S
C1553      C1554   1.404       .  A
C1553      C1558   1.404       .  A
C1553      H1563   1.084       .  S
C1554      C1555   1.412       .  A
C1554      C1559   1.485       .  S
C1555      C1556   1.399       .  A
C1555      S1560   1.803       .  S
C1556      C1557   1.402       .  A
C1556      H1561   1.084       .  S
C1557      C1558   1.414       .  A
C1558      S1562   1.803       .  S
C1559      C1564   1.406       .  A
C1559      C1568   1.400       .  A
S1560      H1576   1.405       .  S
S1562      H1573   1.405       .  S
C1564      C1565   1.407       .  A
C1564      S1569   1.805       .  S
C1565      C1566   1.411       .  A
C1565      H1570   1.082       .  S
C1566      C1567   1.421       .  A
C1567      C1568   1.405       .  A
C1567      S1571   1.810       .  S
C1568      H1572   1.083       .  S
S1569      H1574   1.407       .  S
S1571      H1575   1.407       .  S
C1577      C1578   1.402       .  A
C1577      C1582   1.406       .  A
C1577      H1587   1.084       .  S
C1578      C1579   1.409       .  A
C1578      C1583   1.486       .  S
C1579      C1580   1.397       .  A
C1579      S1584   1.804       .  S
C1580      C1581   1.410       .  A
C1580      H1585   1.083       .  S
C1581      C1582   1.423       .  A
C1582      S1586   1.801       .  S
C1583      C1588   1.410       .  A
C1583      C1592   1.403       .  A
S1584      H1600   1.406       .  S
S1586      H1597   1.408       .  S
C1588      C1589   1.406       .  A
C1588      S1593   1.806       .  S
C1589      C1590   1.406       .  A
C1589      H1594   1.083       .  S
C1590      C1591   1.414       .  A
C1591      C1592   1.401       .  A
C1591      S1595   1.803       .  S
C1592      H1596   1.084       .  S
S1593      H1598   1.407       .  S
S1595      H1599   1.404       .  S
C1601      C1602   1.403       .  A
C1601      C1606   1.404       .  A
C1601      H1611   1.084       .  S
C1602      C1603   1.411       .  A
C1602      C1607   1.483       .  S
C1603      C1604   1.398       .  A
C1603      S1608   1.806       .  S
C1604      C1605   1.409       .  A
C1604      H1609   1.084       .  S
C1605      C1606   1.418       .  A
C1606      S1610   1.802       .  S
C1607      C1612   1.411       .  A
C1607      C1616   1.402       .  A
S1608      H1624   1.405       .  S
S1610      H1621   1.407       .  S
C1612      C1613   1.405       .  A
C1612      S1617   1.806       .  S
C1613      C1614   1.405       .  A
C1613      H1618   1.083       .  S
C1614      C1615   1.414       .  A
C1615      C1616   1.400       .  A
C1615      S1619   1.803       .  S
C1616      H1620   1.084       .  S
S1617      H1622   1.407       .  S
S1619      H1623   1.405       .  S
C1625      C1626   1.402       .  A
C1625      C1630   1.404       .  A
C1625      H1635   1.084       .  S
C1626      C1627   1.409       .  A
C1626      C1631   1.482       .  S
C1627      C1628   1.397       .  A
C1627      S1632   1.806       .  S
C1628      C1629   1.411       .  A
C1628      H1633   1.083       .  S
C1629      C1630   1.423       .  A
C1630      S1634   1.801       .  S
C1631      C1636   1.410       .  A
C1631      C1640   1.403       .  A
S1632      H1648   1.406       .  S
S1634      H1645   1.407       .  S
C1636      C1637   1.403       .  A
C1636      S1641   1.805       .  S
C1637      C1638   1.403       .  A
C1637      H1642   1.083       .  S
C1638      C1639   1.412       .  A
C1639      C1640   1.397       .  A
C1639      S1643   1.805       .  S
C1640      H1644   1.084       .  S
S1641      H1646   1.407       .  S
S1643      H1647   1.405       .  S
C1649      C1650   1.404       .  A
C1649      C1654   1.399       .  A
C1649      H1659   1.084       .  S
C1650      C1651   1.411       .  A
C1650      C1655   1.479       .  S
C1651      C1652   1.398       .  A
C1651      S1656   1.804       .  S
C1652      C1653   1.403       .  A
C1652      H1657   1.084       .  S
C1653      C1654   1.412       .  A
C1654      S1658   1.804       .  S
C1655      C1660   1.410       .  A
C1655      C1664   1.399       .  A
S1656      H1672   1.406       .  S
S1658      H1669   1.405       .  S
C1660      C1661   1.401       .  A
C1660      S1665   1.809       .  S
C1661      C1662   1.408       .  A
C1661      H1666   1.082       .  S
C1662      C1663   1.419       .  A
C1663      C1664   1.399       .  A
C1663      S1667   1.801       .  S
C1664      H1668   1.084       .  S
S1665      H1670   1.407       .  S
S1667      H1671   1.408       .  S
C1673      C1674   1.403       .  A
C1673      C1678   1.400       .  A
C1673      H1683   1.084       .  S
C1674      C1675   1.414       .  A
C1674      C1679   1.476       .  S
C1675      C1676   1.398       .  A
C1675      S1680   1.809       .  S
C1676      C1677   1.402       .  A
C1676      H1681   1.084       .  S
C1677      C1678   1.411       .  A
C1678      S1682   1.803       .  S
C1679      C1684   1.407       .  A
C1679      C1688   1.399       .  A
S1680      H1696   1.402       .  S
S1682      H1693   1.404       .  S
C1684      C1685   1.405       .  A
C1684      S1689   1.805       .  S
C1685      C1686   1.407       .  A
C1685      H1690   1.083       .  S
C1686      C1687   1.416       .  A
C1687      C1688   1.397       .  A
C1687      S1691   1.803       .  S
C1688      H1692   1.084       .  S
S1689      H1694   1.407       .  S
S1691      H1695   1.407       .  S
C1697      C1698   1.402       .  A
C1697      C1702   1.396       .  A
C1697      H1707   1.084       .  S
C1698      C1699   1.411       .  A
C1698      C1703   1.474       .  S
C1699      C1700   1.399       .  A
C1699      S1704   1.803       .  S
C1700      C1701   1.403       .  A
C1700      H1705   1.084       .  S
C1701      C1702   1.410       .  A
C1702      S1706   1.803       .  S
C1703      C1708   1.407       .  A
C1703      C1712   1.400       .  A
S1704      H1720   1.405       .  S
S1706      H1717   1.406       .  S
C1708      C1709   1.401       .  A
C1708      S1713   1.807       .  S
C1709      C1710   1.407       .  A
C1709      H1714   1.083       .  S
C1710      C1711   1.417       .  A
C1711      C1712   1.398       .  A
C1711      S1715   1.803       .  S
C1712      H1716   1.084       .  S
S1713      H1718   1.407       .  S
S1715      H1719   1.408       .  S
C1721      C1722   1.402       .  A
C1721      C1726   1.399       .  A
C1721      H1731   1.084       .  S
C1722      C1723   1.413       .  A
C1722      C1727   1.480       .  S
C1723      C1724   1.399       .  A
C1723      S1728   1.805       .  S
C1724      C1725   1.404       .  A
C1724      H1729   1.084       .  S
C1725      C1726   1.414       .  A
C1726      S1730   1.804       .  S
C1727      C1732   1.407       .  A
C1727      C1736   1.402       .  A
S1728      H1744   1.405       .  S
S1730      H1741   1.406       .  S
C1732      C1733   1.400       .  A
C1732      S1737   1.808       .  S
C1733      C1734   1.408       .  A
C1733      H1738   1.082       .  S
C1734      C1735   1.418       .  A
C1735      C1736   1.403       .  A
C1735      S1739   1.802       .  S
C1736      H1740   1.084       .  S
S1737      H1742   1.407       .  S
S1739      H1743   1.407       .  S
