geometry optimzed in LAMMPS
_audit_creation_date              2020-12-01 
_audit_creation_method            'lammps2cif' 
_symmetry_space_group_name_H-M    'P1' 
_symmetry_Int_Tables_number       1 
_symmetry_cell_setting            triclinic 
loop_ 
_symmetry_equiv_pos_as_xyz 
  x,y,z 
_cell_length_a                    48.58573504 
_cell_length_b                    49.22995204373052 
_cell_length_c                    30.773946341037174 
_cell_angle_alpha                 93.20733756008458 
_cell_angle_beta                  90.53617160211999 
_cell_angle_gamma                 89.82677205689549 
loop_ 
_atom_site_label 
_atom_site_type_symbol 
_atom_site_fract_x 
_atom_site_fract_y 
_atom_site_fract_z 
_atom_site_charge 
C1          C  0.13861575  0.99230244  0.05453663     0.85900
C2          C  0.11912792  0.01697229  0.05055733    -0.54300
C3          C  0.10697991  0.01844509  0.51005657     0.08900
C4          C  0.11250000  0.49727161  0.48545949     0.19800
C5          C  0.12123525  0.47186013  0.04711421    -0.55000
C6          C  0.10933194  0.47258778  0.51371673     0.09000
C7          C  0.15647025  0.99310371  0.01352104    -0.54600
C8          C  0.14362983  0.99194631  0.47379768     0.09500
H9          H  0.11771667  0.03421118  0.07379036     0.14100
H10         H  0.10066830  0.49577600  0.45437566    -0.00200
H11         H  0.11977017  0.45615602  0.07040288     0.14400
H12         H  0.18055206  0.99303473  0.51260360     0.14100
O13         O  0.22161760  0.47747126  0.30816670    -0.72300
O14         O  0.27733294  0.47956484  0.22163484    -0.72500
O15         O  0.27683866  0.47941729  0.30909642    -0.72400
O16         O  0.22238355  0.47707692  0.22033417    -0.72400
O17         O  0.22081651  0.01135674  0.22263776    -0.72400
O18         O  0.27658736  0.01386929  0.31057820    -0.72400
O19         O  0.27612666  0.01493307  0.22334976    -0.72300
O20         O  0.22130435  0.01050113  0.30989587    -0.72500
V21         V  0.24948620  0.47924785  0.26492118     1.35200
V22         V  0.24876002  0.01180589  0.26652683     1.35200
C23         C  0.21193207  0.49929487  0.32583321     0.76900
C24         C  0.28552013  0.50205522  0.20839173     0.77000
C25         C  0.28578401  0.50172197  0.32584877     0.76800
C26         C  0.21190461  0.49863359  0.20711826     0.76800
C27         C  0.36100677  0.50669848  0.06121724     0.85900
C28         C  0.38028134  0.48198223  0.05568889    -0.54300
C29         C  0.39221187  0.48108587  0.51636248     0.08900
C30         C  0.38576585  0.50401809  0.48597823     0.19800
C31         C  0.37818769  0.02562256  0.05129555    -0.55000
C32         C  0.39119793  0.02465953  0.51323742     0.09000
C33         C  0.34337743  0.50606971  0.01961644    -0.54600
C34         C  0.35443558  0.50329561  0.47923684     0.09500
H35         H  0.38258289  0.46699107  0.08008313     0.14100
H36         H  0.39731701  0.50260233  0.45497781    -0.00200
H37         H  0.38025292  0.04234064  0.07540104     0.14400
H38         H  0.31746509  0.50452258  0.51712791     0.14100
C39         C  0.49659995  0.13908735  0.43876115     0.85900
C40         C  0.02769250  0.11951649  0.44197372    -0.54300
C41         C  0.02535917  0.10216101  0.97919675     0.08900
C42         C  0.49837209  0.11417082  0.00966087     0.19800
C43         C  0.47043639  0.12221161  0.44583360    -0.55000
C44         C  0.47190080  0.10965849  0.98246029     0.09000
C45         C  0.49921677  0.15681734  0.48144768    -0.54600
C46         C  0.50033309  0.14521456  0.01801524     0.09500
H47         H  0.04199445  0.11640545  0.41530453     0.14100
H48         H  0.49883938  0.10297814  0.03998673    -0.00200
H49         H  0.45216700  0.12168298  0.42558400     0.14400
H50         H  0.49969102  0.18118287  0.98159590     0.14100
O51         O  0.47214524  0.27512682  0.28464773    -0.72300
O52         O  0.47622467  0.21922902  0.19417272    -0.72500
O53         O  0.47609780  0.22051204  0.28166969    -0.72400
O54         O  0.47233102  0.27365791  0.19701638    -0.72400
O55         O  0.02547117  0.27411086  0.19457269    -0.72400
O56         O  0.02967366  0.22310135  0.28243289    -0.72400
O57         O  0.02888565  0.21984438  0.19472290    -0.72300
O58         O  0.02621907  0.27754530  0.28232026    -0.72500
V59         V  0.47503931  0.24720014  0.23946298     1.35200
V60         V  0.02671769  0.24858181  0.23853503     1.35200
C61         C  0.49370504  0.28657617  0.30007918     0.76900
C62         C  0.49923061  0.21148419  0.17895011     0.77000
C63         C  0.49900965  0.21355206  0.29746326     0.76800
C64         C  0.49402231  0.28354482  0.18202163     0.76800
C65         C  0.99763841  0.35497133  0.03669204     0.85900
C66         C  0.02368754  0.37224935  0.03211829    -0.54300
C67         C  0.02622905  0.38828455  0.50090529     0.08900
C68         C  0.00160840  0.38398383  0.46906584     0.19800
C69         C  0.47073108  0.37663931  0.03429803    -0.55000
C70         C  0.47034507  0.39368752  0.49953612     0.09000
C71         C  0.99918598  0.33786101  0.49368872    -0.54600
C72         C  0.00043284  0.35304067  0.45806436     0.09500
H73         H  0.04005711  0.37316698  0.05643498     0.14100
H74         H  0.00253434  0.39607356  0.43978199    -0.00200
H75         H  0.45633424  0.38164488  0.06014346     0.14400
H76         H  0.99815295  0.31577790  0.49119969     0.14100
C77         C  0.46798538  0.30967717  0.36138261    -0.26900
C78         C  0.49209658  0.30787749  0.33640271    -0.14900
C79         C  0.02376112  0.32455735  0.34748793     0.35700
C80         C  0.02199456  0.34141208  0.38583217    -0.26300
C81         C  0.99939509  0.33983882  0.41354617    -0.15600
C82         C  0.46654162  0.32689198  0.39918277     0.36800
N83         N  0.44216259  0.32744519  0.42504849    -0.89800
H84         H  0.45052738  0.29676269  0.35277350     0.17900
H85         H  0.03901363  0.35474436  0.39517579     0.17900
N86         N  0.04768182  0.32684318  0.32111174    -0.88800
H87         H  0.43851771  0.30773609  0.43458358     0.35300
H88         H  0.42776897  0.32733607  0.90759806     0.40400
H89         H  0.04134834  0.33067960  0.28946737     0.40000
H90         H  0.05859760  0.30852232  0.32064310     0.34900
C91         C  0.02193845  0.30118662  0.11481200    -0.26900
C92         C  0.49313271  0.30235667  0.14616941    -0.14900
C93         C  0.47043412  0.31951665  0.13864666     0.35700
C94         C  0.47077007  0.33635516  0.10354945    -0.26300
C95         C  0.99889474  0.33679544  0.07563951    -0.15600
C96         C  0.02099758  0.31826823  0.07984848     0.36800
N97         N  0.04245792  0.31640881  0.04818223    -0.89800
H98         H  0.03903296  0.28712804  0.11715967     0.17900
H99         H  0.45248708  0.34822884  0.09859428     0.17900
N100        N  0.44681128  0.32068194  0.16623866    -0.88800
H101        H  0.04299792  0.29645002  0.03466735     0.35300
H102        H  0.06120921  0.32034654  0.06421742     0.40400
H103        H  0.45331349  0.32517611  0.19831735     0.40000
H104        H  0.43703235  0.30178313  0.16413433     0.34900
C105        C  0.48156438  0.17172592  0.32880034    -0.26900
C106        C  0.50026354  0.19335978  0.33122447    -0.14900
C107        C  0.02393485  0.19970548  0.37048213     0.35700
C108        C  0.02275597  0.18212610  0.40441362    -0.26300
C109        C  0.49806281  0.15613993  0.39845951    -0.15600
C110        C  0.48083445  0.15265836  0.36103223     0.36800
N111        N  0.46375394  0.12922195  0.35367202    -0.92800
H112        H  0.46770576  0.16921678  0.30105268     0.17900
H113        H  0.03474557  0.18748038  0.43339684     0.17900
N114        N  0.03913775  0.22450981  0.37733034    -0.88800
H115        H  0.44345867  0.13583788  0.34963402     0.35300
H116        H  0.46982189  0.11897168  0.32464126     0.40400
H117        H  0.02589388  0.24088495  0.37256080     0.40000
H118        H  0.05492760  0.22465625  0.35453406     0.34900
C119        C  0.03100387  0.18785299  0.11464543    -0.26900
C120        C  0.50095879  0.19181290  0.14069405    -0.14900
C121        C  0.48107424  0.17124984  0.13214650     0.35700
C122        C  0.48220502  0.15506300  0.09292116    -0.26300
C123        C  0.50234507  0.15949347  0.06176471    -0.15600
C124        C  0.03140244  0.17123916  0.07606367     0.36800
N125        N  0.05458446  0.17161963  0.04740712    -0.89800
H126        H  0.04820967  0.20129764  0.12223212     0.17900
H127        H  0.46670246  0.13965665  0.08590552     0.17900
N128        N  0.45967146  0.16709112  0.16299282    -0.88800
H129        H  0.06340040  0.15219742  0.04616710     0.35300
H130        H  0.06965304  0.18504119  0.06007679     0.40400
H131        H  0.46903534  0.16067175  0.19139943     0.40000
H132        H  0.44659783  0.15137905  0.15160223     0.34900
C133        C  0.41450119  0.44390440  0.47073049    -0.26900
C134        C  0.41455523  0.46098613  0.50880308    -0.14900
C135        C  0.43809363  0.45712285  0.04036418     0.35700
C136        C  0.45699023  0.43586104  0.03427340    -0.26300
C137        C  0.45320553  0.41851792  0.49856200    -0.15600
C138        C  0.43346551  0.42244048  0.46556602     0.36800
N139        N  0.43117486  0.40406261  0.42798829    -0.89800
H140        H  0.39873091  0.44633200  0.44609660     0.17900
H141        H  0.47277032  0.43320713  0.05884003     0.17900
N142        N  0.44036107  0.47545371  0.07807164    -0.88800
H143        H  0.42803720  0.38447290  0.43841093     0.35300
H144        H  0.44971095  0.40422299  0.41110266     0.40400
H145        H  0.45979739  0.48450734  0.07800040     0.40000
H146        H  0.43914814  0.46407582  0.10567796     0.34900
C147        C  0.40581019  0.07423588  0.01216015    -0.26900
C148        C  0.41158046  0.04594942  0.50387183    -0.14900
C149        C  0.43858757  0.03910702  0.49091394     0.35700
C150        C  0.45753718  0.05974101  0.48411110    -0.26300
C151        C  0.45133728  0.08862044  0.99101256    -0.15600
C152        C  0.42450832  0.09516830  0.00531044     0.36800
N153        N  0.41581465  0.12280477  0.01329773    -0.89800
H154        H  0.38527160  0.07949097  0.02325766     0.17900
H155        H  0.47792923  0.05420993  0.47279970     0.17900
N156        N  0.44724511  0.01129296  0.48589796    -0.88800
H157        H  0.39958314  0.12604983  0.48807484     0.35300
H158        H  0.43057951  0.13575079  0.50776644     0.40400
H159        H  0.46713490  0.50828620  0.00410132     0.40000
H160        H  0.45468137  0.00967502  0.95008771     0.34900
C161        C  0.30818447  0.47859651  0.38643506    -0.26900
C162        C  0.30634509  0.50175867  0.36180829    -0.14900
C163        C  0.32318866  0.52450123  0.37332743     0.35700
C164        C  0.34021366  0.52405049  0.41064406    -0.26300
C165        C  0.34053075  0.50144954  0.43638048    -0.15600
C166        C  0.32491561  0.47839249  0.42365218     0.36800
N167        N  0.32561421  0.45491353  0.44912489    -0.89800
H168        H  0.29570178  0.46085482  0.37789097     0.17900
H169        H  0.35241480  0.54173847  0.42068875     0.17900
N170        N  0.32271640  0.54799276  0.34761577    -0.88800
H171        H  0.33202519  0.43829144  0.42906692     0.35300
H172        H  0.30558120  0.45110943  0.45926620     0.40400
H173        H  0.32904608  0.03632228  0.31654367     0.40000
H174        H  0.33256897  0.05666678  0.36176863     0.34900
C175        C  0.34103079  0.01974992  0.12954518    -0.26900
C176        C  0.34289756  0.50538461  0.10181360    -0.14900
C177        C  0.32536856  0.48265520  0.10604558     0.35700
C178        C  0.30757479  0.48167282  0.14155798    -0.26300
C179        C  0.30632247  0.50304809  0.17342381    -0.15600
C180        C  0.32348054  0.01836283  0.16544385     0.36800
N181        N  0.32303861  0.04035451  0.19795642    -0.89800
H182        H  0.35313689  0.03792388  0.12777726     0.17900
H183        H  0.29402818  0.46433111  0.14341922     0.17900
N184        N  0.32521528  0.46052492  0.07372416    -0.88800
H185        H  0.31762669  0.05812099  0.18281741     0.35300
H186        H  0.34296243  0.04283715  0.21067944     0.40400
H187        H  0.33011555  0.44267678  0.08902368     0.40000
H188        H  0.30527351  0.45854740  0.06089960     0.34900
C189        C  0.06371994  0.45528553  0.48634265    -0.26900
C190        C  0.08987521  0.44963447  0.50333484    -0.14900
C191        C  0.09424098  0.42085558  0.00179754     0.35700
C192        C  0.07338263  0.40106559  0.99888720    -0.26300
C193        C  0.04847061  0.40897466  0.49701020    -0.15600
C194        C  0.04293032  0.43547306  0.48374063     0.36800
N195        N  0.01588100  0.44302713  0.47003847    -0.89800
H196        H  0.05875541  0.47565155  0.47726617     0.17900
H197        H  0.07843501  0.38013649  0.00484562     0.17900
N198        N  0.12217353  0.41327220  0.01117842    -0.88800
H199        H  0.01719838  0.44996570  0.43863594     0.35300
H200        H  0.00908420  0.45919150  0.49073245     0.40400
H201        H  0.13406001  0.41771059  0.98434950     0.40000
H202        H  0.12491085  0.39485822  0.53238104     0.34900
C203        C  0.09489233  0.06261015  0.47954791    -0.26900
C204        C  0.08642312  0.03974783  0.50097280    -0.14900
C205        C  0.05575978  0.03618642  0.01783011     0.35700
C206        C  0.03739382  0.05723257  0.00883192    -0.26300
C207        C  0.04585003  0.08018812  0.98728014    -0.15600
C208        C  0.07660137  0.08416834  0.47214090     0.36800
N209        N  0.08652813  0.10801019  0.45243357    -0.89800
H210        H  0.11616818  0.06405328  0.46981485     0.17900
H211        H  0.01627944  0.05550057  0.01914492     0.17900
N212        N  0.04575054  0.01438855  0.04257171    -0.88800
H213        H  0.10730225  0.10585365  0.44434913     0.35300
H214        H  0.08524719  0.12428926  0.47566027     0.40400
H215        H  0.06141790  0.50496557  0.05268674     0.40000
H216        H  0.03004700  0.00449234  0.02449579     0.34900
C217        C  0.16119826  0.47639727  0.41113268    -0.26900
C218        C  0.15759943  0.50064313  0.43655156    -0.14900
C219        C  0.15626315  0.00907014  0.40058148     0.35700
C220        C  0.17426236  0.00786909  0.36488827    -0.26300
C221        C  0.19176993  0.49930282  0.36220429    -0.15600
C222        C  0.17825210  0.47546587  0.37426115     0.36800
N223        N  0.18197667  0.45020215  0.34964082    -0.89800
H224        H  0.15163655  0.45786878  0.42094691     0.17900
H225        H  0.17350392  0.02382459  0.34203734     0.17900
N226        N  0.13748127  0.03147568  0.40695529    -0.88800
H227        H  0.18996920  0.43604107  0.37051855     0.35300
H228        H  0.16264162  0.44333541  0.33871641     0.40400
H229        H  0.11756601  0.02381098  0.40269204     0.40000
H230        H  0.14006981  0.04543869  0.38293716     0.34900
C231        C  0.16930929  0.00445745  0.17131583    -0.26900
C232        C  0.19207003  0.49729388  0.17045387    -0.14900
C233        C  0.19726657  0.48055612  0.13281834     0.35700
C234        C  0.17848523  0.48027832  0.09792853    -0.26300
C235        C  0.15493149  0.49712477  0.09871035    -0.15600
C236        C  0.15000610  0.00472598  0.13684243     0.36800
N237        N  0.12395084  0.01796903  0.14405246    -0.89800
H238        H  0.16551143  0.01648691  0.20124776     0.17900
H239        H  0.18282622  0.46741629  0.06907659     0.17900
N240        N  0.22207479  0.46456068  0.12957029    -0.88800
H241        H  0.12287764  0.02696242  0.17558797     0.35300
H242        H  0.10876554  0.00293299  0.14167968     0.40400
H243        H  0.23869331  0.47801445  0.12991516     0.40000
H244        H  0.22275918  0.45329849  0.09974966     0.34900
C245        C  0.14044616  0.99424721  0.55329311     0.85900
C246        C  0.12218967  0.01951854  0.54757407    -0.54300
C247        C  0.10407657  0.01639766  0.01287957     0.08900
C248        C  0.11119742  0.49588229  0.98173183     0.19800
C249        C  0.12408443  0.47501777  0.55188120    -0.55000
C250        C  0.10721405  0.47061001  0.00828689     0.09000
C251        C  0.15819692  0.99301923  0.51198376    -0.54600
C252        C  0.14200090  0.99264411  0.97527714     0.09500
H253        H  0.12145758  0.03721117  0.57007787     0.14100
H254        H  0.09987705  0.49514187  0.95015753    -0.00200
H255        H  0.12324365  0.46005572  0.57644526     0.14400
H256        H  0.17882374  0.99351594  0.01442315     0.14100
O257        O  0.22283836  0.47994716  0.81048004    -0.72300
O258        O  0.27924807  0.48173179  0.72554856    -0.72500
O259        O  0.27826413  0.48120007  0.81329974    -0.72400
O260        O  0.22451330  0.48029890  0.72296719    -0.72400
O261        O  0.21883565  0.01489498  0.72542153    -0.72400
O262        O  0.27528205  0.01823994  0.81242734    -0.72400
O263        O  0.27391140  0.01912183  0.72470529    -0.72300
O264        O  0.21998139  0.01399300  0.81274171    -0.72500
V265        V  0.25120207  0.48163253  0.76830370     1.35200
V266        V  0.24708446  0.01573583  0.76879050     1.35200
C267        C  0.21373389  0.50176876  0.82885938     0.76900
C268        C  0.28675531  0.50410271  0.71113457     0.77000
C269        C  0.28801068  0.50336398  0.82952345     0.76800
C270        C  0.21404318  0.50214160  0.71072452     0.76800
C271        C  0.35756961  0.50684875  0.55825904     0.85900
C272        C  0.37748775  0.48261088  0.55395972    -0.54300
C273        C  0.39501477  0.48077441  0.01809904     0.08900
C274        C  0.38931826  0.50453258  0.98901443     0.19800
C275        C  0.37577839  0.02607737  0.55026679    -0.55000
C276        C  0.39316760  0.02505654  0.01372324     0.09000
C277        C  0.33982801  0.50475941  0.51681397    -0.54600
C278        C  0.35798166  0.50480415  0.98211026     0.09500
H279        H  0.38021602  0.46819174  0.57912961     0.14100
H280        H  0.40083328  0.50333603  0.95798860    -0.00200
H281        H  0.37792970  0.04313930  0.57370700     0.14400
H282        H  0.32101006  0.50631342  0.01977485     0.14100
C283        C  0.49682746  0.14101832  0.93856357     0.85900
C284        C  0.02494128  0.11678103  0.94253006    -0.54300
C285        C  0.02801098  0.10436222  0.47802374     0.08900
C286        C  0.49795989  0.11168858  0.50929855     0.19800
C287        C  0.47077864  0.12401094  0.94588183    -0.55000
C288        C  0.47151143  0.10757507  0.48207457     0.09000
C289        C  0.49926342  0.15910044  0.98091693    -0.54600
C290        C  0.50013362  0.14258644  0.51806536     0.09500
H291        H  0.03908770  0.11307514  0.91576619     0.14100
H292        H  0.49818832  0.10048701  0.53960415    -0.00200
H293        H  0.45270548  0.12294746  0.92521272     0.14400
H294        H  0.49983284  0.17890906  0.48281797     0.14100
O295        O  0.47399226  0.27459412  0.78224301    -0.72300
O296        O  0.47716319  0.21880096  0.69198260    -0.72500
O297        O  0.47794622  0.22011521  0.77919728    -0.72400
O298        O  0.47328182  0.27308103  0.69465829    -0.72400
O299        O  0.02220287  0.27380676  0.69657343    -0.72400
O300        O  0.02679841  0.22315921  0.78500825    -0.72400
O301        O  0.02718547  0.21973048  0.69717797    -0.72300
O302        O  0.02176162  0.27745490  0.78412925    -0.72500
V303        V  0.47647026  0.24674122  0.73706568     1.35200
V304        V  0.02362229  0.24845224  0.74073906     1.35200
C305        C  0.49560241  0.28606350  0.79736438     0.76900
C306        C  0.49993476  0.21054376  0.67662934     0.77000
C307        C  0.50095579  0.21321303  0.79464886     0.76800
C308        C  0.49474884  0.28284388  0.67881754     0.76800
C309        C  0.99900978  0.35438498  0.53722664     0.85900
C310        C  0.02459418  0.37276367  0.53644060    -0.54300
C311        C  0.02382139  0.38768651  0.99643278     0.08900
C312        C  0.99758036  0.38423213  0.96802597     0.19800
C313        C  0.46938254  0.37786387  0.53453219    -0.55000
C314        C  0.47170276  0.39209624  0.99895312     0.09000
C315        C  0.99479147  0.33830668  0.99343855    -0.54600
C316        C  0.99480516  0.35334454  0.95757708     0.09500
H317        H  0.03956215  0.37416305  0.56289511     0.14100
H318        H  0.99761584  0.39633847  0.93870336    -0.00200
H319        H  0.45471562  0.38229137  0.56021457     0.14400
H320        H  0.99331051  0.31624873  0.99129622     0.14100
C321        C  0.47037582  0.30682848  0.86094644    -0.26900
C322        C  0.49394145  0.30670746  0.83470419    -0.14900
C323        C  0.01785815  0.32473050  0.84752528     0.35700
C324        C  0.01582118  0.34178958  0.88546476    -0.26300
C325        C  0.99335075  0.34001146  0.91327589    -0.15600
C326        C  0.46879265  0.32328692  0.89953786     0.36800
N327        N  0.44489114  0.32216069  0.92627654    -0.89800
H328        H  0.45343946  0.29318919  0.85258910     0.17900
H329        H  0.03265821  0.35541229  0.89455570     0.17900
N330        N  0.04174275  0.32730354  0.82116392    -0.88800
H331        H  0.44244184  0.30209208  0.93497544     0.35300
H332        H  0.42564814  0.33308434  0.40544069     0.40400
H333        H  0.03537435  0.33065396  0.78935435     0.40000
H334        H  0.05318636  0.30931969  0.82134358     0.34900
C335        C  0.02106776  0.30175000  0.61881611    -0.26900
C336        C  0.49322534  0.30179596  0.64319649    -0.14900
C337        C  0.47029874  0.31891809  0.63681865     0.35700
C338        C  0.47029330  0.33654064  0.60274924    -0.26300
C339        C  0.99858437  0.33590427  0.57590898    -0.15600
C340        C  0.02138643  0.31889259  0.58396184     0.36800
N341        N  0.04497421  0.31865530  0.55634234    -0.89800
H342        H  0.03892468  0.28907379  0.62415450     0.17900
H343        H  0.45204059  0.34865272  0.59890225     0.17900
N344        N  0.44672202  0.31918105  0.66447260    -0.88800
H345        H  0.04772768  0.29883541  0.54303630     0.35300
H346        H  0.06222974  0.32380632  0.57559277     0.40400
H347        H  0.45318874  0.32315499  0.69669058     0.40000
H348        H  0.43722814  0.30014608  0.66138604     0.34900
C349        C  0.48316113  0.17186719  0.82684797    -0.26900
C350        C  0.50224798  0.19317428  0.82860669    -0.14900
C351        C  0.02491309  0.19512185  0.86884374     0.35700
C352        C  0.02363754  0.17691865  0.90207052    -0.26300
C353        C  0.49862996  0.15752326  0.89775371    -0.15600
C354        C  0.48181221  0.15348073  0.85999655     0.36800
N355        N  0.46455844  0.13012127  0.85329040    -0.92800
H356        H  0.46942309  0.16912009  0.79898738     0.17900
H357        H  0.03778248  0.17991998  0.92931453     0.17900
N358        N  0.04396837  0.21726201  0.87376971    -0.88800
H359        H  0.44438669  0.13682571  0.84830461     0.35300
H360        H  0.47088169  0.11925236  0.82494439     0.40400
H361        H  0.03306471  0.23554313  0.87235257     0.40000
H362        H  0.05797006  0.21567395  0.84819098     0.34900
C363        C  0.03034979  0.18961143  0.61506768    -0.26900
C364        C  0.50100874  0.18995552  0.63939735    -0.14900
C365        C  0.47834033  0.17288585  0.62789932     0.35700
C366        C  0.47914874  0.15625449  0.58920260    -0.26300
C367        C  0.50194868  0.15648765  0.56180330    -0.15600
C368        C  0.03133963  0.17350452  0.57599366     0.36800
N369        N  0.05392204  0.17599420  0.54660704    -0.89800
H370        H  0.04652824  0.20430633  0.62241059     0.17900
H371        H  0.46148026  0.14390818  0.57943036     0.17900
N372        N  0.45439587  0.17284045  0.65498487    -0.88800
H373        H  0.06415782  0.15726210  0.54426225     0.35300
H374        H  0.06814319  0.19032282  0.55922718     0.40400
H375        H  0.46035146  0.16514833  0.68464198     0.40000
H376        H  0.43945949  0.15958299  0.64141810     0.34900
C377        C  0.41589148  0.44286764  0.97183370    -0.26900
C378        C  0.41684804  0.46021134  0.00962073    -0.14900
C379        C  0.43532352  0.45807573  0.54056837     0.35700
C380        C  0.45450676  0.43696622  0.53492473    -0.26300
C381        C  0.45494438  0.41723200  0.99818782    -0.15600
C382        C  0.43459665  0.42115832  0.96609615     0.36800
N383        N  0.43154643  0.40261271  0.92885507    -0.89800
H384        H  0.39971298  0.44535436  0.94789090     0.17900
H385        H  0.46996847  0.43415849  0.55991980     0.17900
N386        N  0.43640725  0.47615254  0.57894372    -0.88800
H387        H  0.42844000  0.38310149  0.93965552     0.35300
H388        H  0.44984239  0.40249988  0.91128985     0.40400
H389        H  0.44021991  0.49576246  0.56915980     0.40000
H390        H  0.45286038  0.47110709  0.59913036     0.34900
C391        C  0.40425970  0.07354920  0.51004890    -0.26900
C392        C  0.41324774  0.04674133  0.00452677    -0.14900
C393        C  0.44001786  0.04037317  0.98961036     0.35700
C394        C  0.45863038  0.06133245  0.98267378    -0.26300
C395        C  0.45041540  0.08719495  0.49103509    -0.15600
C396        C  0.42331506  0.09429405  0.50377992     0.36800
N397        N  0.41454378  0.12205636  0.51152309    -0.89800
H398        H  0.38354717  0.07906246  0.51998056     0.17900
H399        H  0.47886542  0.05620842  0.97022148     0.17900
N400        N  0.44880057  0.01270567  0.98259382    -0.88800
H401        H  0.41755724  0.13285341  0.98441295     0.35300
H402        H  0.42904460  0.13215212  0.03645641     0.40400
H403        H  0.46339847  0.51029922  0.50283163     0.40000
H404        H  0.45409104  0.00757490  0.45401513     0.34900
C405        C  0.31269447  0.47959552  0.88801488    -0.26900
C406        C  0.30890640  0.50338453  0.86530328    -0.14900
C407        C  0.32417053  0.52687744  0.87873542     0.35700
C408        C  0.34159013  0.52652971  0.91550347    -0.26300
C409        C  0.34395431  0.50318771  0.93925258    -0.15600
C410        C  0.32986453  0.47943604  0.92491825     0.36800
N411        N  0.33250007  0.45528214  0.94852637    -0.89800
H412        H  0.30147228  0.46124608  0.87820461     0.17900
H413        H  0.35241345  0.54489398  0.92657902     0.17900
N414        N  0.32188066  0.55122173  0.85556727    -0.88800
H415        H  0.33988659  0.43971149  0.92721381     0.35300
H416        H  0.31290336  0.44977879  0.95862632     0.40400
H417        H  0.32490427  0.04364289  0.82327428     0.40000
H418        H  0.32818824  0.06213923  0.87041962     0.34900
C419        C  0.33657180  0.02337390  0.62609809    -0.26900
C420        C  0.33996974  0.50630791  0.59939645    -0.14900
C421        C  0.32381221  0.48307428  0.60683939     0.35700
C422        C  0.30746058  0.48245403  0.64410084    -0.26300
C423        C  0.30610793  0.50482177  0.67423462    -0.15600
C424        C  0.31926175  0.02300432  0.66256095     0.36800
N425        N  0.31721597  0.04660041  0.69211064    -0.89800
H426        H  0.34734289  0.04198351  0.62118007     0.17900
H427        H  0.29508879  0.46457544  0.64871177     0.17900
N428        N  0.32367290  0.46002906  0.57622170    -0.88800
H429        H  0.32931836  0.06247884  0.68171295     0.35300
H430        H  0.32539290  0.04139227  0.72208033     0.40400
H431        H  0.32999853  0.44296495  0.59248593     0.40000
H432        H  0.30344406  0.45678172  0.56529448     0.34900
C433        C  0.06063045  0.45501023  0.98352204    -0.26900
C434        C  0.08747867  0.44834539  0.99623680    -0.14900
C435        C  0.09619833  0.42262494  0.51328601     0.35700
C436        C  0.07542664  0.40269585  0.51030326    -0.26300
C437        C  0.04589260  0.40812399  0.99023498    -0.15600
C438        C  0.03975962  0.43528049  0.98089733     0.36800
N439        N  0.01213880  0.44346423  0.97160582    -0.89800
H440        H  0.05532580  0.47598718  0.97843186     0.17900
H441        H  0.08020168  0.38220257  0.51914921     0.17900
N442        N  0.12365688  0.41552822  0.52636240    -0.88800
H443        H  0.01188754  0.45188574  0.94116274     0.35300
H444        H  0.00645099  0.45869208  0.99487210     0.40400
H445        H  0.13663071  0.41858940  0.50018406     0.40000
H446        H  0.12372141  0.39228163  0.01436629     0.34900
C447        C  0.09215537  0.06090035  0.98381455    -0.26900
C448        C  0.08341771  0.03769769  0.00402783    -0.14900
C449        C  0.05915654  0.03870950  0.51651460     0.35700
C450        C  0.04081038  0.05982978  0.50821933    -0.26300
C451        C  0.04883810  0.08252972  0.48569612    -0.15600
C452        C  0.07383849  0.08222381  0.97548773     0.36800
N453        N  0.08389648  0.10629011  0.95660955    -0.89800
H454        H  0.11366310  0.06281970  0.97580913     0.17900
H455        H  0.02001738  0.05823646  0.51990651     0.17900
N456        N  0.04947190  0.01720108  0.54217505    -0.88800
H457        H  0.10488424  0.10444139  0.94973080     0.35300
H458        H  0.08190750  0.12244688  0.97987751     0.40400
H459        H  0.06133449  0.50389973  0.54718865     0.40000
H460        H  0.03343867  0.00727114  0.52493413     0.34900
C461        C  0.15739146  0.47932552  0.90475772    -0.26900
C462        C  0.15724659  0.50120243  0.93589572    -0.14900
C463        C  0.15609967  0.01225787  0.90480774     0.35700
C464        C  0.17412423  0.01157098  0.86924971    -0.26300
C465        C  0.19289852  0.50158177  0.86387225    -0.15600
C466        C  0.17513117  0.47929273  0.86882955     0.36800
N467        N  0.17499820  0.45662776  0.83757393    -0.89800
H468        H  0.14456207  0.46174955  0.90928369     0.17900
H469        H  0.17457624  0.02869993  0.84864281     0.17900
N470        N  0.13862549  0.03540936  0.91369188    -0.88800
H471        H  0.17963113  0.43908423  0.85386488     0.35300
H472        H  0.15507059  0.45457615  0.82470859     0.40400
H473        H  0.11829672  0.02888597  0.90913306     0.40000
H474        H  0.14187328  0.05015939  0.89115200     0.34900
C475        C  0.16827112  0.00668610  0.67156856    -0.26900
C476        C  0.19482972  0.50157785  0.67326496    -0.14900
C477        C  0.20112394  0.48616049  0.63476202     0.35700
C478        C  0.18262303  0.48583370  0.59951973    -0.26300
C479        C  0.15836658  0.50167960  0.60053254    -0.15600
C480        C  0.14995009  0.00679567  0.63578886     0.36800
N481        N  0.12348402  0.01956128  0.64113702    -0.89800
H482        H  0.16328812  0.01816919  0.70155420     0.17900
H483        H  0.18758564  0.47342294  0.57047713     0.17900
N484        N  0.22672579  0.47147359  0.63112526    -0.88800
H485        H  0.12131634  0.02829774  0.67270188     0.35300
H486        H  0.10859563  0.00431552  0.63727086     0.40400
H487        H  0.24262936  0.48577569  0.63293143     0.40000
H488        H  0.22826185  0.46113394  0.60062828     0.34900
C489        C  0.13796660  0.49798785  0.05630673     0.85900
C490        C  0.11713639  0.52142044  0.05140363    -0.54300
C491        C  0.10464816  0.52205756  0.51565677     0.08900
C492        C  0.11216742  0.99275929  0.48017730     0.19800
C493        C  0.12023435  0.96723269  0.04599854    -0.55000
C494        C  0.10636528  0.96874152  0.50878354     0.09000
C495        C  0.15632549  0.50006162  0.01615655    -0.54600
C496        C  0.14371685  0.50012772  0.47915994     0.09500
H497        H  0.11442456  0.53866067  0.07430242     0.14100
H498        H  0.10006334  0.99198193  0.44937965    -0.00200
H499        H  0.11835320  0.95148050  0.06912538     0.14400
H500        H  0.18047685  0.50540229  0.51768442     0.14100
O501        O  0.22475604  0.96647326  0.30588727    -0.72300
O502        O  0.27853438  0.97086186  0.21727961    -0.72500
O503        O  0.27985308  0.96986809  0.30474738    -0.72400
O504        O  0.22362552  0.96724728  0.21797787    -0.72400
O505        O  0.21948263  0.52119419  0.22505134    -0.72400
O506        O  0.27590377  0.52354647  0.31223580    -0.72400
O507        O  0.27491771  0.52366423  0.22494263    -0.72300
O508        O  0.22063173  0.52156362  0.31267764    -0.72500
V509        V  0.25160621  0.96946791  0.26160220     1.35200
V510        V  0.24772383  0.52164202  0.26861801     1.35200
C511        C  0.21393930  0.98781682  0.32320872     0.76900
C512        C  0.28650685  0.99367733  0.20516861     0.77000
C513        C  0.28775129  0.99226622  0.32273866     0.76800
C514        C  0.21304733  0.98884146  0.20484470     0.76800
C515        C  0.36012325  0.00010860  0.05609465     0.85900
C516        C  0.38066995  0.97639859  0.05079773    -0.54300
C517        C  0.39375813  0.97562751  0.51587137     0.08900
C518        C  0.38699466  0.99820678  0.48487281     0.19800
C519        C  0.38055211  0.53127017  0.05669828    -0.55000
C520        C  0.39134444  0.53006978  0.51463110     0.09000
C521        C  0.34247776  0.99837769  0.01449876    -0.54600
C522        C  0.35579366  0.99638597  0.47693684     0.09500
H523        H  0.38372291  0.96162552  0.07534757     0.14100
H524        H  0.39907197  0.99706467  0.45437321    -0.00200
H525        H  0.38356703  0.54759841  0.08127381     0.14400
H526        H  0.31825863  0.99692376  0.51337876     0.14100
C527        C  0.50214662  0.64103694  0.44134180     0.85900
C528        C  0.02454045  0.62005638  0.44130841    -0.54300
C529        C  0.02320113  0.60401376  0.97635823     0.08900
C530        C  0.50858254  0.60944480  0.00954599     0.19800
C531        C  0.47523148  0.62512525  0.44671145    -0.55000
C532        C  0.48166338  0.60693328  0.98316505     0.09000
C533        C  0.50542114  0.65694577  0.48562606    -0.54600
C534        C  0.51211685  0.64007033  0.01968125     0.09500
H535        H  0.03958797  0.61692213  0.41566925     0.14100
H536        H  0.50867811  0.59766520  0.03926407    -0.00200
H537        H  0.45762206  0.62600715  0.42491177     0.14400
H538        H  0.51237755  0.67708295  0.98634768     0.14100
O539        O  0.47831127  0.77240147  0.27995971    -0.72300
O540        O  0.48440491  0.71638230  0.19010617    -0.72500
O541        O  0.48232675  0.71789533  0.27728090    -0.72400
O542        O  0.48021343  0.77084677  0.19226782    -0.72400
O543        O  0.01960677  0.77541615  0.19417557    -0.72400
O544        O  0.02419093  0.72408892  0.28129200    -0.72400
O545        O  0.02485181  0.72136784  0.19350288    -0.72300
O546        O  0.01899341  0.77832359  0.28171124    -0.72500
V547        V  0.48215920  0.74448960  0.23491694     1.35200
V548        V  0.02104668  0.74968488  0.23768887     1.35200
C549        C  0.49950251  0.78425691  0.29599031     0.76900
C550        C  0.50774328  0.70792166  0.17733995     0.77000
C551        C  0.50482953  0.71188421  0.29525180     0.76800
C552        C  0.50203554  0.78067994  0.17763111     0.76800
C553        C  0.99205266  0.85573988  0.03619828     0.85900
C554        C  0.01833477  0.87261221  0.03210898    -0.54300
C555        C  0.02082790  0.88734368  0.49595820     0.08900
C556        C  0.99494524  0.88445239  0.46649682     0.19800
C557        C  0.47686228  0.87508929  0.03246357    -0.55000
C558        C  0.47440149  0.88944457  0.49801806     0.09000
C559        C  0.99036565  0.83871795  0.49217380    -0.54600
C560        C  0.99138917  0.85355197  0.45611631     0.09500
H561        H  0.03460806  0.87325049  0.05659794     0.14100
H562        H  0.99581270  0.89641467  0.43707655    -0.00200
H563        H  0.46232454  0.87920990  0.05851945     0.14400
H564        H  0.98826050  0.81671373  0.49023611     0.14100
C565        C  0.47501999  0.80251626  0.36188616    -0.26900
C566        C  0.49718265  0.80475033  0.33333792    -0.14900
C567        C  0.01441936  0.82563882  0.34534722     0.35700
C568        C  0.01211091  0.84258038  0.38340801    -0.26300
C569        C  0.99000730  0.83998852  0.41176999    -0.15600
C570        C  0.47339739  0.81877096  0.40081089     0.36800
N571        N  0.45119424  0.81507408  0.43047006    -0.89800
H572        H  0.45949457  0.78709388  0.35487527     0.17900
H573        H  0.02859038  0.85667951  0.39226046     0.17900
N574        N  0.03822872  0.82865373  0.31897355    -0.88800
H575        H  0.43785339  0.79979863  0.41827645     0.35300
H576        H  0.44443068  0.83360710  0.93459669     0.40400
H577        H  0.03177528  0.83190689  0.28716767     0.40000
H578        H  0.04994990  0.81084156  0.31908826     0.34900
C579        C  0.01601755  0.80166740  0.11367790    -0.26900
C580        C  0.50130526  0.80031263  0.14252187    -0.14900
C581        C  0.47699920  0.81408869  0.13047672     0.35700
C582        C  0.47765739  0.83216324  0.09705291    -0.26300
C583        C  0.99312788  0.83751742  0.07495762    -0.15600
C584        C  0.01515829  0.81885698  0.07894637     0.36800
N585        N  0.03666685  0.81702718  0.04734026    -0.89800
H586        H  0.03303106  0.78749648  0.11589394     0.17900
H587        H  0.45828674  0.84108025  0.08793906     0.17900
N588        N  0.45110544  0.81018549  0.15110299    -0.88800
H589        H  0.03717824  0.79710768  0.03366678     0.35300
H590        H  0.05541005  0.82088088  0.06345727     0.40400
H591        H  0.45332929  0.81481684  0.18451516     0.40000
H592        H  0.44508470  0.78992074  0.14553359     0.34900
C593        C  0.49309744  0.66771838  0.32600027    -0.26900
C594        C  0.50541364  0.69341582  0.33125996    -0.14900
C595        C  0.02010811  0.69904385  0.36755982     0.35700
C596        C  0.01970896  0.68084167  0.40066427    -0.26300
C597        C  0.50339307  0.65878659  0.40188776    -0.15600
C598        C  0.49273974  0.65004108  0.36039929     0.36800
N599        N  0.48214338  0.62308613  0.35254969    -0.92800
H600        H  0.48417227  0.66111762  0.29477593     0.17900
H601        H  0.03236580  0.68553858  0.42921976     0.17900
N602        N  0.03561768  0.72364310  0.37461371    -0.88800
H603        H  0.46180037  0.62461318  0.34153832     0.35300
H604        H  0.49361924  0.61336129  0.32763930     0.40400
H605        H  0.02236574  0.74021595  0.37148638     0.40000
H606        H  0.05086994  0.72412084  0.35097648     0.34900
C607        C  0.02622778  0.69354578  0.10838498    -0.26900
C608        C  0.51031888  0.68694736  0.14103328    -0.14900
C609        C  0.48866633  0.66881093  0.12924453     0.35700
C610        C  0.49058376  0.65186898  0.09111149    -0.26300
C611        C  0.51344452  0.65322415  0.06397569    -0.15600
C612        C  0.02650557  0.67776605  0.06901610     0.36800
N613        N  0.04728923  0.68229766  0.03753184    -0.89800
H614        H  0.04133427  0.70957089  0.11372607     0.17900
H615        H  0.47349424  0.63871994  0.08151389     0.17900
N616        N  0.46450891  0.66782155  0.15541000    -0.88800
H617        H  0.06650221  0.67939080  0.05215959     0.35300
H618        H  0.04598482  0.70258388  0.02929186     0.40400
H619        H  0.46229616  0.64792500  0.16504947     0.40000
H620        H  0.44749632  0.67230686  0.13597880     0.34900
C621        C  0.41789724  0.93968952  0.46936603    -0.26900
C622        C  0.41648847  0.95564773  0.50862068    -0.14900
C623        C  0.43957407  0.95402401  0.03692673     0.35700
C624        C  0.45927753  0.93330845  0.03143169    -0.26300
C625        C  0.45650460  0.91405462  0.49754945    -0.15600
C626        C  0.43754096  0.91876671  0.46367697     0.36800
N627        N  0.43674973  0.90181098  0.42436539    -0.89800
H628        H  0.40283067  0.94263973  0.44385572     0.17900
H629        H  0.47493563  0.93110471  0.05632487     0.17900
N630        N  0.44034473  0.97225605  0.07512666    -0.88800
H631        H  0.43406358  0.88169921  0.43248731     0.35300
H632        H  0.45562174  0.90334792  0.40869354     0.40400
H633        H  0.44351613  0.99192747  0.06513800     0.40000
H634        H  0.45706027  0.96775699  0.09515260     0.34900
C635        C  0.41340131  0.57778105  0.01902765    -0.26900
C636        C  0.41278317  0.55034689  0.50486523    -0.14900
C637        C  0.43903652  0.54216795  0.48956714     0.35700
C638        C  0.45886942  0.56180469  0.48160985    -0.26300
C639        C  0.45927708  0.58811006  0.99347156    -0.15600
C640        C  0.43373261  0.59707326  0.01085384     0.36800
N641        N  0.42779909  0.62531738  0.02123717    -0.89800
H642        H  0.39385431  0.58480245  0.03214331     0.17900
H643        H  0.47873228  0.55529751  0.46915869     0.17900
N644        N  0.44615229  0.51398773  0.48342403    -0.88800
H645        H  0.42263926  0.63603096  0.48435646     0.35300
H646        H  0.43481326  0.63434294  0.53588745     0.40400
H647        H  0.46620350  0.00977407  0.00204259     0.40000
H648        H  0.45466437  0.50927671  0.95273340     0.34900
C649        C  0.31262927  0.96933057  0.38166406    -0.26900
C650        C  0.30861752  0.99286949  0.35845207    -0.14900
C651        C  0.32332374  0.01679900  0.37159014     0.35700
C652        C  0.34016715  0.01706906  0.40914389    -0.26300
C653        C  0.34252181  0.99401093  0.43357521    -0.15600
C654        C  0.32921079  0.96984901  0.41922727     0.36800
N655        N  0.33194707  0.94600297  0.44355664    -0.89800
H656        H  0.30183291  0.95071956  0.37189357     0.17900
H657        H  0.35057386  0.03562261  0.42045106     0.17900
N658        N  0.32076126  0.04081947  0.34735444    -0.88800
H659        H  0.33999771  0.93040863  0.42294333     0.35300
H660        H  0.31230185  0.94018064  0.45295854     0.40400
H661        H  0.33035496  0.54202736  0.31687542     0.40000
H662        H  0.33605274  0.56295933  0.36086506     0.34900
C663        C  0.34223342  0.52639239  0.13489043    -0.26900
C664        C  0.34235852  0.99844309  0.09696231    -0.14900
C665        C  0.32590889  0.97509628  0.10209621     0.35700
C666        C  0.30858334  0.97372591  0.13809715    -0.26300
C667        C  0.30673867  0.99532725  0.16955233    -0.15600
C668        C  0.32420716  0.52537260  0.17035394     0.36800
N669        N  0.32446439  0.54694647  0.20358187    -0.89800
H670        H  0.35525626  0.54400842  0.13368296     0.17900
H671        H  0.29587674  0.95584126  0.14068677     0.17900
N672        N  0.32637399  0.95272387  0.07023270    -0.88800
H673        H  0.32011459  0.56516371  0.18897444     0.35300
H674        H  0.34433821  0.54831126  0.21683651     0.40400
H675        H  0.33219980  0.93523791  0.08581055     0.40000
H676        H  0.30640009  0.94982442  0.05793380     0.34900
C677        C  0.05963581  0.95377686  0.48278247    -0.26900
C678        C  0.08595163  0.94686876  0.49766387    -0.14900
C679        C  0.09081929  0.91762345  0.00096266     0.35700
C680        C  0.06912618  0.89876615  0.99803439    -0.26300
C681        C  0.04350555  0.90738748  0.49084075    -0.15600
C682        C  0.03829417  0.93449434  0.48001886     0.36800
N683        N  0.01111833  0.94312511  0.46883320    -0.89800
H684        H  0.05511360  0.97460498  0.47564138     0.17900
H685        H  0.07323810  0.87761636  0.00381908     0.17900
N686        N  0.11841316  0.90883673  0.01011112    -0.88800
H687        H  0.01177828  0.95100119  0.43801244     0.35300
H688        H  0.00529474  0.95884781  0.49114831     0.40400
H689        H  0.13045863  0.91281593  0.98322474     0.40000
H690        H  0.11853090  0.90214447  0.54589366     0.34900
C691        C  0.09219539  0.56589111  0.48508112    -0.26900
C692        C  0.08360263  0.54247201  0.50488748    -0.14900
C693        C  0.05519406  0.54005308  0.01969498     0.35700
C694        C  0.03660212  0.56074351  0.01022335    -0.26300
C695        C  0.04399520  0.58225387  0.98444791    -0.15600
C696        C  0.07363489  0.58707133  0.47699449     0.36800
N697        N  0.08355451  0.61176103  0.45989570    -0.89800
H698        H  0.11372474  0.56800985  0.47714908     0.17900
H699        H  0.01613225  0.55970617  0.02343128     0.17900
N700        N  0.04613288  0.51938430  0.04756310    -0.88800
H701        H  0.10472324  0.61055412  0.45432049     0.35300
H702        H  0.08063028  0.62745287  0.48376809     0.40400
H703        H  0.06099069  0.99999754  0.04808437     0.40000
H704        H  0.02983410  0.50897600  0.03176982     0.34900
C705        C  0.17656708  0.96726360  0.42442438    -0.26900
C706        C  0.15794991  0.98893204  0.43130501    -0.14900
C707        C  0.17028538  0.52453403  0.42395387     0.35700
C708        C  0.18693758  0.52378534  0.38688780    -0.26300
C709        C  0.19358111  0.98669435  0.35880626    -0.15600
C710        C  0.19425520  0.96590939  0.38854029     0.36800
N711        N  0.21382617  0.94414976  0.38382188    -0.89800
H712        H  0.17807161  0.95176102  0.44801711     0.17900
H713        H  0.19688764  0.54239927  0.37838383     0.17900
N714        N  0.16668862  0.54954951  0.44934598    -0.88800
H715        H  0.22617951  0.94454186  0.41185582     0.35300
H716        H  0.20300123  0.92578995  0.38188960     0.40400
H717        H  0.15828762  0.56385979  0.42911208     0.40000
H718        H  0.18609471  0.55647046  0.45982087     0.34900
C719        C  0.16760129  0.51233041  0.17328355    -0.26900
C720        C  0.19277658  0.98788575  0.16855128    -0.14900
C721        C  0.19670509  0.97063149  0.13102903     0.35700
C722        C  0.17828974  0.97202836  0.09570724    -0.26300
C723        C  0.15586390  0.99034979  0.09659447    -0.15600
C724        C  0.14838780  0.51158800  0.13862236     0.36800
N725        N  0.12190029  0.52405556  0.14523090    -0.89800
H726        H  0.16308353  0.52402401  0.20326846     0.17900
H727        H  0.18185071  0.95902861  0.06672615     0.17900
N728        N  0.21976356  0.95223399  0.12842723    -0.88800
H729        H  0.12047070  0.53340804  0.17649649     0.35300
H730        H  0.10721099  0.50855269  0.14320081     0.40400
H731        H  0.23770545  0.96391343  0.12873775     0.40000
H732        H  0.21948336  0.94067411  0.09886119     0.34900
C733        C  0.14078898  0.50140683  0.55855598     0.85900
C734        C  0.11969596  0.52451685  0.55330888    -0.54300
C735        C  0.10295914  0.51997079  0.01285620     0.08900
C736        C  0.11057243  0.99195664  0.98118864     0.19800
C737        C  0.12096700  0.96987224  0.54704419    -0.55000
C738        C  0.10569337  0.96684521  0.00767883     0.09000
C739        C  0.15830146  0.50261980  0.51717721    -0.54600
C740        C  0.14252914  0.49880817  0.97735467     0.09500
H741        H  0.11747093  0.54225364  0.57538941     0.14100
H742        H  0.09871200  0.99173260  0.95015017    -0.00200
H743        H  0.11865892  0.95496400  0.57145596     0.14400
H744        H  0.17851914  0.50259047  0.01813582     0.14100
O745        O  0.22348188  0.97002115  0.80748225    -0.72300
O746        O  0.27748589  0.97512314  0.71990551    -0.72500
O747        O  0.27847820  0.97424403  0.80735083    -0.72400
O748        O  0.22286819  0.97087714  0.71986699    -0.72400
O749        O  0.22133793  0.52436158  0.73002938    -0.72400
O750        O  0.27876499  0.52529227  0.81535362    -0.72400
O751        O  0.27645613  0.52579449  0.72791679    -0.72300
O752        O  0.22348268  0.52404106  0.81746095    -0.72500
V753        V  0.25049947  0.97344879  0.76384565     1.35200
V754        V  0.25003781  0.52402857  0.77266979     1.35200
C755        C  0.21254890  0.99110888  0.82529365     0.76900
C756        C  0.28456469  0.99792071  0.70668819     0.77000
C757        C  0.28639626  0.99671773  0.82506340     0.76800
C758        C  0.21186078  0.99231738  0.70699045     0.76800
C759        C  0.35766272  0.00076735  0.55607782     0.85900
C760        C  0.37840314  0.97704121  0.55299411    -0.54300
C761        C  0.39553341  0.97584935  0.01329817     0.08900
C762        C  0.38845371  0.99923869  0.98391038     0.19800
C763        C  0.37638743  0.53174257  0.55226228    -0.55000
C764        C  0.39567849  0.52991325  0.01906135     0.09000
C765        C  0.34060817  0.99776064  0.51393995    -0.54600
C766        C  0.35707222  0.99788943  0.97696068     0.09500
H767        H  0.38098035  0.96278367  0.57841886     0.14100
H768        H  0.40011558  0.99872230  0.95302559    -0.00200
H769        H  0.37932541  0.54853999  0.57598955     0.14400
H770        H  0.32012189  0.99774744  0.01469365     0.14100
C771        C  0.50774077  0.63812736  0.94042375     0.85900
C772        C  0.02163970  0.61774238  0.93883025    -0.54300
C773        C  0.02454293  0.60559194  0.47812036     0.08900
C774        C  0.50222780  0.61085365  0.50871918     0.19800
C775        C  0.48089409  0.62225760  0.94759629    -0.55000
C776        C  0.47550336  0.60906871  0.48147706     0.09000
C777        C  0.51148724  0.65500907  0.98378351    -0.54600
C778        C  0.50599816  0.64125164  0.52054489     0.09500
H779        H  0.03503003  0.61359036  0.91125847     0.14100
H780        H  0.50199693  0.59845032  0.53773363    -0.00200
H781        H  0.46247768  0.62320025  0.92769091     0.14400
H782        H  0.50586066  0.67893886  0.49009423     0.14100
O783        O  0.48173569  0.77199826  0.78384492    -0.72300
O784        O  0.48505592  0.71597038  0.69401676    -0.72500
O785        O  0.48591601  0.71754483  0.78115542    -0.72400
O786        O  0.48088243  0.77050261  0.69616079    -0.72400
O787        O  0.01765155  0.77598901  0.69582091    -0.72400
O788        O  0.02168786  0.72371956  0.78153306    -0.72400
O789        O  0.02188198  0.72187450  0.69387955    -0.72300
O790        O  0.01715808  0.77819300  0.78341691    -0.72500
V791        V  0.48424728  0.74412322  0.73877771     1.35200
V792        V  0.01872138  0.74987243  0.73871733     1.35200
C793        C  0.50332972  0.78368939  0.79856533     0.76900
C794        C  0.50795645  0.70760969  0.67931244     0.77000
C795        C  0.50899353  0.71111621  0.79693171     0.76800
C796        C  0.50230226  0.78028555  0.68005748     0.76800
C797        C  0.99301632  0.85544674  0.53539725     0.85900
C798        C  0.01965101  0.87195222  0.53164645    -0.54300
C799        C  0.01905868  0.88779616  0.99629369     0.08900
C800        C  0.99298265  0.88483622  0.96743072     0.19800
C801        C  0.47411369  0.87374136  0.53322519    -0.55000
C802        C  0.47657931  0.89021953  0.99655144     0.09000
C803        C  0.98929931  0.83904205  0.99298758    -0.54600
C804        C  0.98978844  0.85397782  0.95704890     0.09500
H805        H  0.03561781  0.87245845  0.55662079     0.14100
H806        H  0.99337612  0.89696218  0.93809793    -0.00200
H807        H  0.45901561  0.87762562  0.55836237     0.14400
H808        H  0.98754878  0.81700398  0.99095570     0.14100
C809        C  0.47960384  0.80243154  0.86458814    -0.26900
C810        C  0.50175434  0.80418212  0.83590014    -0.14900
C811        C  0.01278684  0.82580768  0.84674550     0.35700
C812        C  0.01048501  0.84292443  0.88456310    -0.26300
C813        C  0.98830262  0.84054013  0.91280126    -0.15600
C814        C  0.47805297  0.81917798  0.90289437     0.36800
N815        N  0.45604567  0.81572167  0.93301768    -0.89800
H816        H  0.46395244  0.78706062  0.85813569     0.17900
H817        H  0.02699796  0.85700492  0.89332880     0.17900
N818        N  0.03653659  0.82872474  0.82021281    -0.88800
H819        H  0.44280612  0.80014338  0.92161520     0.35300
H820        H  0.43976717  0.83309430  0.43260546     0.40400
H821        H  0.03000946  0.83186211  0.78841194     0.40000
H822        H  0.04824521  0.81090202  0.82041021     0.34900
C823        C  0.01442374  0.80082601  0.61396322    -0.26900
C824        C  0.50063768  0.79943546  0.64454509    -0.14900
C825        C  0.47879593  0.81819258  0.64082868     0.35700
C826        C  0.47816390  0.83547732  0.60621406    -0.26300
C827        C  0.99327278  0.83746571  0.57470840    -0.15600
C828        C  0.01423868  0.81768082  0.57872642     0.36800
N829        N  0.03534870  0.81435944  0.54663654    -0.89800
H830        H  0.03059743  0.78572204  0.61605123     0.17900
H831        H  0.46081361  0.84901956  0.60511855     0.17900
N832        N  0.45718267  0.82073068  0.67218660    -0.88800
H833        H  0.03461890  0.79432766  0.53345423     0.35300
H834        H  0.05440441  0.81729234  0.56223107     0.40400
H835        H  0.46596503  0.82438963  0.70310123     0.40000
H836        H  0.44608919  0.80256680  0.67142296     0.34900
C837        C  0.49380103  0.66839634  0.82846402    -0.26900
C838        C  0.51069164  0.69145718  0.83144625    -0.14900
C839        C  0.02259541  0.69226207  0.86085132     0.35700
C840        C  0.02119591  0.67412692  0.89412833    -0.26300
C841        C  0.50899693  0.65545807  0.90042505    -0.15600
C842        C  0.49353110  0.64988914  0.86161611     0.36800
N843        N  0.47860085  0.62501618  0.85432929    -0.92800
H844        H  0.48110095  0.66437230  0.79967864     0.17900
H845        H  0.03702166  0.67526010  0.91922338     0.17900
N846        N  0.04499691  0.71114464  0.86186135    -0.88800
H847        H  0.45802321  0.62985515  0.84803564     0.35300
H848        H  0.48645232  0.61468469  0.82651410     0.40400
H849        H  0.03704909  0.73092289  0.86283550     0.40000
H850        H  0.05658245  0.70765519  0.83364402     0.34900
C851        C  0.02393115  0.69326493  0.61027992    -0.26900
C852        C  0.50937356  0.68671455  0.64288678    -0.14900
C853        C  0.48832673  0.66722031  0.63471742     0.35700
C854        C  0.48869118  0.65066387  0.59586114    -0.26300
C855        C  0.50939728  0.65362990  0.56514033    -0.15600
C856        C  0.02483718  0.67711881  0.57138459     0.36800
N857        N  0.04674783  0.68067011  0.54138844    -0.89800
H858        H  0.03970195  0.70854057  0.61660381     0.17900
H859        H  0.47205710  0.63651138  0.58850166     0.17900
N860        N  0.46643859  0.66472344  0.66532804    -0.88800
H861        H  0.06538453  0.67730371  0.55748279     0.35300
H862        H  0.04641771  0.70088187  0.53257754     0.40400
H863        H  0.47517279  0.65818575  0.69412976     0.40000
H864        H  0.45256548  0.64962918  0.65422016     0.34900
C865        C  0.41880410  0.93895963  0.96757500    -0.26900
C866        C  0.41856391  0.95634197  0.00535771    -0.14900
C867        C  0.43651609  0.95207334  0.54130703     0.35700
C868        C  0.45631456  0.93149659  0.53526955    -0.26300
C869        C  0.45838910  0.91455082  0.99538913    -0.15600
C870        C  0.43837737  0.91792243  0.96248939     0.36800
N871        N  0.43650485  0.89948130  0.92496662    -0.89800
H872        H  0.40284569  0.94082613  0.94307100     0.17900
H873        H  0.47122421  0.92837551  0.56095216     0.17900
N874        N  0.43643420  0.96911715  0.58083027    -0.88800
H875        H  0.43365811  0.87990286  0.93551233     0.35300
H876        H  0.45509644  0.89991574  0.90826350     0.40400
H877        H  0.44035916  0.98903564  0.57264077     0.40000
H878        H  0.45239127  0.96365753  0.60170021     0.34900
C879        C  0.40723393  0.57827930  0.51226712    -0.26900
C880        C  0.41783079  0.54978199  0.01003559    -0.14900
C881        C  0.44354177  0.54109910  0.99309655     0.35700
C882        C  0.46375487  0.56028429  0.98466672    -0.26300
C883        C  0.45337313  0.58952296  0.48939980    -0.15600
C884        C  0.42722783  0.59787886  0.50464384     0.36800
N885        N  0.42061999  0.62602486  0.51322015    -0.89800
H886        H  0.38720976  0.58492660  0.52394217     0.17900
H887        H  0.48311572  0.55332285  0.97080487     0.17900
N888        N  0.44973109  0.51279172  0.98557050    -0.88800
H889        H  0.41160260  0.63094980  0.00101993     0.35300
H890        H  0.44441281  0.63777906  0.01466885     0.40400
H891        H  0.46394451  0.00856454  0.50691792     0.40000
H892        H  0.45172976  0.51014959  0.45092731     0.34900
C893        C  0.31257000  0.97307147  0.88180670    -0.26900
C894        C  0.30734702  0.99726591  0.86081889    -0.14900
C895        C  0.32120859  0.02134917  0.87587913     0.35700
C896        C  0.33890782  0.02078362  0.91246439    -0.26300
C897        C  0.34290110  0.99679144  0.93418637    -0.15600
C898        C  0.32989956  0.97276820  0.91843400     0.36800
N899        N  0.33368372  0.94814125  0.94046686    -0.89800
H900        H  0.30228806  0.95438218  0.87089370     0.17900
H901        H  0.34878256  0.03932442  0.92514409     0.17900
N902        N  0.31695682  0.04632719  0.85468115    -0.88800
H903        H  0.34159698  0.93337994  0.91820615     0.35300
H904        H  0.31438470  0.94158245  0.95032147     0.40400
H905        H  0.34150112  0.55625763  0.84495175     0.40000
H906        H  0.31518378  0.56688708  0.87731527     0.34900
C907        C  0.33867053  0.52859378  0.63015217    -0.26900
C908        C  0.33933941  0.00050786  0.59657744    -0.14900
C909        C  0.32367573  0.97706209  0.60424456     0.35700
C910        C  0.30661475  0.97662932  0.64066072    -0.26300
C911        C  0.30404685  0.99934387  0.66994066    -0.15600
C912        C  0.32197462  0.52803515  0.66708932     0.36800
N913        N  0.32143168  0.55115201  0.69748825    -0.89800
H914        H  0.35004216  0.54698522  0.62601942     0.17900
H915        H  0.29476408  0.95843157  0.64540219     0.17900
N916        N  0.32472439  0.95356228  0.57462364    -0.88800
H917        H  0.31504324  0.56805019  0.68086375     0.35300
H918        H  0.34150405  0.55473732  0.70890328     0.40400
H919        H  0.33113281  0.93696843  0.59196777     0.40000
H920        H  0.30480961  0.94961583  0.56278835     0.34900
C921        C  0.05873838  0.95311628  0.98251193    -0.26900
C922        C  0.08519978  0.94536504  0.99548300    -0.14900
C923        C  0.09174039  0.91942722  0.50505587     0.35700
C924        C  0.07059914  0.90002231  0.50164158    -0.26300
C925        C  0.04195941  0.90710720  0.98983069    -0.15600
C926        C  0.03694977  0.93445804  0.98077631     0.36800
N927        N  0.00956424  0.94394041  0.97303915    -0.89800
H928        H  0.05446257  0.97416582  0.97659928     0.17900
H929        H  0.07526627  0.87918134  0.50873288     0.17900
N930        N  0.11912645  0.91116945  0.51596313    -0.88800
H931        H  0.00910995  0.95262049  0.94281252     0.35300
H932        H  0.00499976  0.95921635  0.99688759     0.40400
H933        H  0.12549504  0.89641830  0.49239365     0.40000
H934        H  0.11904917  0.88779641  0.01317895     0.34900
C935        C  0.08959621  0.56162599  0.97646203    -0.26900
C936        C  0.08199599  0.54040902  0.00226977    -0.14900
C937        C  0.05579493  0.54021256  0.51739362     0.35700
C938        C  0.03717754  0.56095152  0.50813651    -0.26300
C939        C  0.04549471  0.58428328  0.48745981    -0.15600
C940        C  0.07113477  0.58277006  0.96809000     0.36800
N941        N  0.08061235  0.60524469  0.94475469    -0.89800
H942        H  0.11035050  0.56227766  0.96392330     0.17900
H943        H  0.01600212  0.55868769  0.51770474     0.17900
N944        N  0.04580067  0.51782837  0.54083244    -0.88800
H945        H  0.08744606  0.59770853  0.91428390     0.35300
H946        H  0.09743910  0.61396535  0.96168849     0.40400
H947        H  0.06465874  0.00271444  0.54735008     0.40000
H948        H  0.03103956  0.50754656  0.52127159     0.34900
C949        C  0.17318378  0.96798200  0.92327661    -0.26900
C950        C  0.15630976  0.99064464  0.93284681    -0.14900
C951        C  0.17376884  0.52404828  0.92968597     0.35700
C952        C  0.19131033  0.52413138  0.89383386    -0.26300
C953        C  0.19191665  0.98938642  0.86047351    -0.15600
C954        C  0.19072177  0.96687411  0.88710240     0.36800
N955        N  0.20820449  0.94357612  0.87883838    -0.89800
H956        H  0.17313540  0.95133924  0.94490532     0.17900
H957        H  0.20441803  0.54163100  0.89033768     0.17900
N958        N  0.17297635  0.54711114  0.96018847    -0.88800
H959        H  0.20611016  0.92980997  0.90327094     0.35300
H960        H  0.20116558  0.93344498  0.85012695     0.40400
H961        H  0.16733239  0.56414974  0.94331925     0.40000
H962        H  0.19283880  0.55031285  0.97277341     0.34900
C963        C  0.17002386  0.51606451  0.67599584    -0.26900
C964        C  0.19243070  0.99110312  0.66973731    -0.14900
C965        C  0.19813357  0.97470714  0.63191398     0.35700
C966        C  0.18042469  0.97558932  0.59574464    -0.26300
C967        C  0.15735116  0.99305825  0.59568280    -0.15600
C968        C  0.15120938  0.51553878  0.64075005     0.36800
N969        N  0.12453287  0.52768351  0.64699083    -0.89800
H970        H  0.16489848  0.52706128  0.70635179     0.17900
H971        H  0.18504005  0.96275040  0.56701713     0.17900
N972        N  0.22233313  0.95778066  0.62986218    -0.88800
H973        H  0.12273895  0.53680771  0.67833973     0.35300
H974        H  0.11001522  0.51202115  0.64436544     0.40400
H975        H  0.23949214  0.97058580  0.63167619     0.40000
H976        H  0.22339281  0.94677218  0.59987366     0.34900
C977        C  0.63977489  0.00281899  0.05148981     0.85900
C978        C  0.61949873  0.02654222  0.04602005    -0.54300
C979        C  0.60218814  0.02053676  0.51087822     0.08900
C980        C  0.61132654  0.49370789  0.47942062     0.19800
C981        C  0.62461227  0.46685587  0.04366417    -0.55000
C982        C  0.60655091  0.46965496  0.50838046     0.09000
C983        C  0.65738429  0.00316834  0.01016500    -0.54600
C984        C  0.64101377  0.99931164  0.47345459     0.09500
H985        H  0.61757492  0.04426149  0.06821335     0.14100
H986        H  0.59907940  0.49255737  0.44875319    -0.00200
H987        H  0.62280447  0.45198828  0.06824567     0.14400
H988        H  0.67802605  0.00393735  0.51174547     0.14100
O989        O  0.72326257  0.46978579  0.30441109    -0.72300
O990        O  0.77933628  0.47444833  0.21994567    -0.72500
O991        O  0.77827758  0.47279726  0.30701267    -0.72400
O992        O  0.72474808  0.47114856  0.21689123    -0.72400
O993        O  0.71948695  0.02429342  0.22425293    -0.72400
O994        O  0.77573790  0.02411787  0.31153181    -0.72400
O995        O  0.77472981  0.02470471  0.22440558    -0.72300
O996        O  0.72026540  0.02380902  0.31172702    -0.72500
V997        V  0.75130733  0.47292382  0.26227174     1.35200
V998        V  0.74752751  0.02339859  0.26796543     1.35200
C999        C  0.71276777  0.49106506  0.32240393     0.76900
C1000       C  0.78691800  0.49725677  0.20734701     0.77000
C1001       C  0.78679000  0.49503801  0.32459555     0.76800
C1002       C  0.71434442  0.49283149  0.20400567     0.76800
C1003       C  0.85886525  0.50227232  0.05657397     0.85900
C1004       C  0.87994988  0.47901161  0.05277867    -0.54300
C1005       C  0.89697807  0.47690066  0.51199018     0.08900
C1006       C  0.88943814  0.49944393  0.48128936     0.19800
C1007       C  0.87649048  0.02993320  0.05306152    -0.55000
C1008       C  0.89318579  0.02987865  0.51237515     0.09000
C1009       C  0.84121189  0.49907419  0.01513365    -0.54600
C1010       C  0.85807546  0.49732537  0.47480884     0.09500
H1011       H  0.88330925  0.46484751  0.07815250     0.14100
H1012       H  0.90098321  0.49837601  0.45027481    -0.00200
H1013       H  0.87990603  0.04619882  0.07754306     0.14400
H1014       H  0.82133796  0.49766160  0.51313413     0.14100
C1015       C  0.00464192  0.14089538  0.44118675     0.85900
C1016       C  0.52043742  0.11849844  0.44046749    -0.54300
C1017       C  0.52197098  0.10678494  0.97789008     0.08900
C1018       C  0.00230161  0.11045339  0.01144188     0.19800
C1019       C  0.97782709  0.12473335  0.44628489    -0.55000
C1020       C  0.97559110  0.10796336  0.98452321     0.09000
C1021       C  0.00718100  0.15748667  0.48498275    -0.54600
C1022       C  0.00608453  0.14114677  0.02093794     0.09500
H1023       H  0.53467827  0.11514854  0.41375080     0.14100
H1024       H  0.00209103  0.09887368  0.04136868    -0.00200
H1025       H  0.96036486  0.12520311  0.42417857     0.14400
H1026       H  0.00721242  0.17779288  0.98667062     0.14100
O1027       O  0.98182870  0.27377434  0.28417589    -0.72300
O1028       O  0.98426638  0.21800908  0.19374873    -0.72500
O1029       O  0.98513813  0.21919524  0.28086684    -0.72400
O1030       O  0.98090254  0.27246751  0.19669276    -0.72400
O1031       O  0.51689368  0.27612798  0.19729123    -0.72400
O1032       O  0.52059680  0.22425249  0.28362313    -0.72400
O1033       O  0.52080675  0.22208818  0.19573286    -0.72300
O1034       O  0.51657455  0.27864126  0.28471043    -0.72500
V1035       V  0.98389794  0.24595616  0.23887385     1.35200
V1036       V  0.51783850  0.25018468  0.24041802     1.35200
C1037       C  0.00356629  0.28523109  0.29887111     0.76900
C1038       C  0.00700286  0.20935038  0.17879192     0.77000
C1039       C  0.00811451  0.21245468  0.29653217     0.76800
C1040       C  0.00241081  0.28204368  0.18066690     0.76800
C1041       C  0.49353872  0.35499015  0.03606571     0.85900
C1042       C  0.52009023  0.37168501  0.03278161    -0.54300
C1043       C  0.52002760  0.38914004  0.49798098     0.08900
C1044       C  0.49420689  0.38652451  0.46834001     0.19800
C1045       C  0.97415224  0.37602105  0.03560491    -0.55000
C1046       C  0.97631282  0.39011882  0.49786483     0.09000
C1047       C  0.49004348  0.34031478  0.49198043    -0.54600
C1048       C  0.49091692  0.35583210  0.45679139     0.09500
H1049       H  0.53604388  0.37221865  0.05777094     0.14100
H1050       H  0.49490593  0.39882576  0.43930053    -0.00200
H1051       H  0.95963831  0.38046593  0.06144984     0.14400
H1052       H  0.48802469  0.31830585  0.48899594     0.14100
C1053       C  0.97876152  0.30610162  0.36260394    -0.26900
C1054       C  0.00219982  0.30592000  0.33614515    -0.14900
C1055       C  0.51427328  0.32570451  0.34818517     0.35700
C1056       C  0.51248572  0.34317318  0.38566085    -0.26300
C1057       C  0.48930163  0.34303958  0.41222135    -0.15600
C1058       C  0.97730622  0.32265120  0.40104186     0.36800
N1059       N  0.95349536  0.32155714  0.42798872    -0.89800
H1060       H  0.96178969  0.29245375  0.35451704     0.17900
H1061       H  0.53003496  0.35566295  0.39557068     0.17900
N1062       N  0.53900794  0.32642237  0.32334020    -0.88800
H1063       H  0.95114978  0.30152422  0.43692721     0.35300
H1064       H  0.93044895  0.32604479  0.90951180     0.40400
H1065       H  0.53379818  0.32987015  0.29106353     0.40000
H1066       H  0.54917592  0.30776545  0.32469921     0.34900
C1067       C  0.51553423  0.30247182  0.11776212    -0.26900
C1068       C  0.00082618  0.30137888  0.14558310    -0.14900
C1069       C  0.97856502  0.31961065  0.14145855     0.35700
C1070       C  0.97789813  0.33699607  0.10709053    -0.26300
C1071       C  0.49337426  0.33684231  0.07503134    -0.15600
C1072       C  0.51566545  0.31900550  0.08216819     0.36800
N1073       N  0.53849064  0.31732840  0.05297777    -0.89800
H1074       H  0.53291670  0.28906120  0.12246463     0.17900
H1075       H  0.96010850  0.34993860  0.10531694     0.17900
N1076       N  0.95639723  0.32134904  0.17190476    -0.88800
H1077       H  0.54010319  0.29723856  0.04031555     0.35300
H1078       H  0.55641452  0.32201222  0.07089417     0.40400
H1079       H  0.96456471  0.32494106  0.20324975     0.40000
H1080       H  0.94566861  0.30296068  0.17017673     0.34900
C1081       C  0.99542314  0.16842565  0.32641375    -0.26900
C1082       C  0.00948858  0.19322513  0.33142377    -0.14900
C1083       C  0.51936270  0.19533297  0.36611407     0.35700
C1084       C  0.51832631  0.17663254  0.39857365    -0.26300
C1085       C  0.00658523  0.15827689  0.40141724    -0.15600
C1086       C  0.99469870  0.15047352  0.36036085     0.36800
N1087       N  0.98270417  0.12413295  0.35224277    -0.92800
H1088       H  0.98528238  0.16276271  0.29571845     0.17900
H1089       H  0.53310067  0.17877453  0.42513704     0.17900
N1090       N  0.53923883  0.21676846  0.37070348    -0.88800
H1091       H  0.96232071  0.12675322  0.34205321     0.35300
H1092       H  0.99335641  0.11412013  0.32666463     0.40400
H1093       H  0.52892774  0.23544640  0.37068449     0.40000
H1094       H  0.55261405  0.21511253  0.34430629     0.34900
C1095       C  0.52211677  0.19496942  0.11061600    -0.26900
C1096       C  0.00803496  0.18847678  0.14208808    -0.14900
C1097       C  0.98586104  0.17050398  0.13218237     0.35700
C1098       C  0.98645754  0.15365730  0.09367712    -0.26300
C1099       C  0.00854421  0.15468021  0.06491845    -0.15600
C1100       C  0.52291973  0.17917318  0.07117363     0.36800
N1101       N  0.54431584  0.18329471  0.04026685    -0.89800
H1102       H  0.53749120  0.21061504  0.11708275     0.17900
H1103       H  0.96908167  0.14064359  0.08505725     0.17900
N1104       N  0.96263346  0.16978190  0.16068704    -0.88800
H1105       H  0.55590238  0.16536970  0.03720517     0.35300
H1106       H  0.55773029  0.19864957  0.05191880     0.40400
H1107       H  0.96964471  0.16268762  0.19022468     0.40000
H1108       H  0.94800671  0.15577783  0.14832417     0.34900
C1109       C  0.91958607  0.43919794  0.46715124    -0.26900
C1110       C  0.91968663  0.45707253  0.50438803    -0.14900
C1111       C  0.93810121  0.45557247  0.03925035     0.35700
C1112       C  0.95739196  0.43458707  0.03442956    -0.26300
C1113       C  0.95873816  0.41466802  0.49587274    -0.15600
C1114       C  0.93880950  0.41780738  0.46283246     0.36800
N1115       N  0.93674109  0.39879525  0.42601619    -0.89800
H1116       H  0.90364663  0.44097214  0.44259593     0.17900
H1117       H  0.97294972  0.43253972  0.05954060     0.17900
N1118       N  0.93956824  0.47427742  0.07659587    -0.88800
H1119       H  0.93371191  0.37940808  0.43732574     0.35300
H1120       H  0.95540166  0.39873851  0.40940320     0.40400
H1121       H  0.95888923  0.48358736  0.07706232     0.40000
H1122       H  0.93809000  0.46315330  0.10444355     0.34900
C1123       C  0.90769209  0.07693636  0.01695387    -0.26900
C1124       C  0.91477577  0.05017239  0.50331153    -0.14900
C1125       C  0.94160112  0.04199859  0.49099935     0.35700
C1126       C  0.96164377  0.06165450  0.48391128    -0.26300
C1127       C  0.95355918  0.08855558  0.99345660    -0.15600
C1128       C  0.92778893  0.09673801  0.01077128     0.36800
N1129       N  0.92145006  0.12463338  0.02322092    -0.89800
H1130       H  0.88795611  0.08335154  0.03010974     0.17900
H1131       H  0.98197225  0.05509723  0.47367387     0.17900
N1132       N  0.94896889  0.01380776  0.48702803    -0.88800
H1133       H  0.92437401  0.13520966  0.47851486     0.35300
H1134       H  0.93502193  0.13504571  0.53109509     0.40400
H1135       H  0.96403369  0.50915928  0.00617447     0.40000
H1136       H  0.95037214  0.01050439  0.94757504     0.34900
C1137       C  0.80803605  0.47291023  0.38695932    -0.26900
C1138       C  0.80765734  0.49495800  0.35994252    -0.14900
C1139       C  0.82664708  0.51643282  0.36788143     0.35700
C1140       C  0.84460977  0.51597337  0.40410314    -0.26300
C1141       C  0.84362259  0.49464616  0.43237275    -0.15600
C1142       C  0.82561116  0.47273677  0.42318338     0.36800
N1143       N  0.82469167  0.45055716  0.45136492    -0.89800
H1144       H  0.79379254  0.45617639  0.38104420     0.17900
H1145       H  0.85846462  0.53285436  0.41147878     0.17900
N1146       N  0.82742340  0.53865644  0.33955601    -0.88800
H1147       H  0.82894463  0.43261244  0.43284394     0.35300
H1148       H  0.80466420  0.44924026  0.46321031     0.40400
H1149       H  0.83232775  0.03712185  0.31000034     0.40000
H1150       H  0.84103287  0.05909812  0.35138092     0.34900
C1151       C  0.83994524  0.02577320  0.13182196    -0.26900
C1152       C  0.84132054  0.50124061  0.09759381    -0.14900
C1153       C  0.82676497  0.47714763  0.10569881     0.35700
C1154       C  0.81017891  0.47607660  0.14250059    -0.26300
C1155       C  0.80683562  0.49881899  0.17141908    -0.15600
C1156       C  0.82274117  0.02524372  0.16810511     0.36800
N1157       N  0.82355963  0.04726797  0.20056117    -0.89800
H1158       H  0.85284369  0.04337021  0.12978967     0.17900
H1159       H  0.79906981  0.45746974  0.14752488     0.17900
N1160       N  0.82838200  0.45367259  0.07608701    -0.88800
H1161       H  0.81883744  0.06524038  0.18548539     0.35300
H1162       H  0.84366679  0.04886051  0.21282180     0.40400
H1163       H  0.83571717  0.43736329  0.09326558     0.40000
H1164       H  0.80849907  0.44892478  0.06486157     0.34900
C1165       C  0.56008088  0.45444149  0.48195440    -0.26900
C1166       C  0.58607089  0.44764988  0.49834789    -0.14900
C1167       C  0.59335716  0.41672236  0.00350461     0.35700
C1168       C  0.57148655  0.39802670  0.00103726    -0.26300
C1169       C  0.54300567  0.40884095  0.49302033    -0.15600
C1170       C  0.53837816  0.43562928  0.48030302     0.36800
N1171       N  0.51141371  0.44452916  0.46838517    -0.89800
H1172       H  0.55600245  0.47497065  0.47281412     0.17900
H1173       H  0.57536697  0.37701196  0.00797786     0.17900
N1174       N  0.62076926  0.40783873  0.01365358    -0.88800
H1175       H  0.51233946  0.45170291  0.43709339     0.35300
H1176       H  0.50577622  0.46077495  0.48983586     0.40400
H1177       H  0.63305978  0.41104272  0.98671239     0.40000
H1178       H  0.61894171  0.39157230  0.52720422     0.34900
C1179       C  0.58899361  0.06381903  0.47919453    -0.26900
C1180       C  0.58102616  0.04097205  0.50107583    -0.14900
C1181       C  0.55540998  0.04188735  0.01447561     0.35700
C1182       C  0.53624809  0.06249854  0.00725302    -0.26300
C1183       C  0.54351426  0.08591540  0.98600592    -0.15600
C1184       C  0.57036304  0.08512578  0.47220695     0.36800
N1185       N  0.57980250  0.10933425  0.45302456    -0.89800
H1186       H  0.61014264  0.06541660  0.46878817     0.17900
H1187       H  0.51549741  0.06005309  0.01874424     0.17900
N1188       N  0.54659515  0.01935470  0.03867063    -0.88800
H1189       H  0.60066616  0.10767982  0.44519326     0.35300
H1190       H  0.57810855  0.12540837  0.47652037     0.40400
H1191       H  0.56725398  0.49964408  0.04468844     0.40000
H1192       H  0.53117318  0.00905030  0.02054959     0.34900
C1193       C  0.67472277  0.46927901  0.42186600    -0.26900
C1194       C  0.65650622  0.49114116  0.42961477    -0.14900
C1195       C  0.66930786  0.02501895  0.42226616     0.35700
C1196       C  0.68625855  0.02503841  0.38572136    -0.26300
C1197       C  0.69204124  0.48958310  0.35726947    -0.15600
C1198       C  0.69232859  0.46822746  0.38596390     0.36800
N1199       N  0.71149667  0.44618046  0.38024475    -0.89800
H1200       H  0.67604730  0.45342334  0.44487927     0.17900
H1201       H  0.69805696  0.04316650  0.38031725     0.17900
N1202       N  0.66761787  0.04879096  0.45117755    -0.88800
H1203       H  0.72387301  0.44587209  0.40819759     0.35300
H1204       H  0.70033746  0.42803014  0.37751321     0.40400
H1205       H  0.66071144  0.06494587  0.43326308     0.40000
H1206       H  0.68744889  0.05344216  0.46274691     0.34900
C1207       C  0.66861059  0.01724762  0.16903833    -0.26900
C1208       C  0.69610081  0.49186381  0.16552622    -0.14900
C1209       C  0.70453369  0.47808662  0.12661367     0.35700
C1210       C  0.68703381  0.47746066  0.09011688    -0.26300
C1211       C  0.66146014  0.49111734  0.09085040    -0.15600
C1212       C  0.64995707  0.01683114  0.13361373     0.36800
N1213       N  0.62332031  0.02912837  0.13953433    -0.89800
H1214       H  0.66359692  0.02862617  0.19910495     0.17900
H1215       H  0.69361015  0.46603193  0.06102749     0.17900
N1216       N  0.73110584  0.46511914  0.12411814    -0.88800
H1217       H  0.62141618  0.03823257  0.17090243     0.35300
H1218       H  0.60872228  0.01356111  0.13669140     0.40400
H1219       H  0.74601712  0.48036305  0.12810763     0.40000
H1220       H  0.73415671  0.45567402  0.09327071     0.34900
C1221       C  0.63858126  0.99943419  0.55268255     0.85900
C1222       C  0.61742284  0.02261749  0.54833783    -0.54300
C1223       C  0.60429989  0.02436385  0.00857336     0.08900
C1224       C  0.61433091  0.48980221  0.97728506     0.19800
C1225       C  0.62153916  0.47138607  0.54629337    -0.55000
C1226       C  0.60919082  0.46576806  0.00612556     0.09000
C1227       C  0.65584536  0.00114466  0.51129341    -0.54600
C1228       C  0.64278497  0.00104119  0.97207125     0.09500
H1229       H  0.61532743  0.04027293  0.57056667     0.14100
H1230       H  0.60170650  0.48918142  0.94699230    -0.00200
H1231       H  0.61978327  0.45669969  0.57115654     0.14400
H1232       H  0.67969224  0.00462163  0.01072069     0.14100
O1233       O  0.72534557  0.46825375  0.80031357    -0.72300
O1234       O  0.78089844  0.47380153  0.71555462    -0.72500
O1235       O  0.78029521  0.47132501  0.80297846    -0.72400
O1236       O  0.72614356  0.47074668  0.71302008    -0.72400
O1237       O  0.72071922  0.02082878  0.72159971    -0.72400
O1238       O  0.77571039  0.02238728  0.81047664    -0.72400
O1239       O  0.77591654  0.02362196  0.72308820    -0.72300
O1240       O  0.72048962  0.01964177  0.80885246    -0.72500
V1241       V  0.75313122  0.47190203  0.75813447     1.35200
V1242       V  0.74826559  0.02076918  0.76591545     1.35200
C1243       C  0.71493476  0.48929852  0.81905527     0.76900
C1244       C  0.78846494  0.49671210  0.70341267     0.77000
C1245       C  0.78851326  0.49345307  0.82152609     0.76800
C1246       C  0.71550324  0.49265914  0.70126374     0.76800
C1247       C  0.86143002  0.50158131  0.55375185     0.85900
C1248       C  0.88236637  0.47815361  0.54974275    -0.54300
C1249       C  0.89462235  0.47782337  0.01515629     0.08900
C1250       C  0.88711232  0.50030307  0.98436482     0.19800
C1251       C  0.87814137  0.03142330  0.54992057    -0.55000
C1252       C  0.89113522  0.02879910  0.01518146     0.09000
C1253       C  0.84368212  0.49859046  0.51253442    -0.54600
C1254       C  0.85573848  0.49787938  0.97742244     0.09500
H1255       H  0.88567547  0.46395532  0.57507935     0.14100
H1256       H  0.89886327  0.49927693  0.95354527    -0.00200
H1257       H  0.88088258  0.04822446  0.57371579     0.14400
H1258       H  0.81888999  0.49783550  0.01562794     0.14100
C1259       C  0.00219952  0.13856001  0.94161128     0.85900
C1260       C  0.52074298  0.12068531  0.94065727    -0.54300
C1261       C  0.52152421  0.10425905  0.47752096     0.08900
C1262       C  0.00422707  0.11171136  0.50966869     0.19800
C1263       C  0.97517013  0.12301083  0.94864742    -0.55000
C1264       C  0.97782811  0.10913616  0.48160798     0.09000
C1265       C  0.00579018  0.15574235  0.98466406    -0.54600
C1266       C  0.00738166  0.14235232  0.52059249     0.09500
H1267       H  0.53506299  0.11724581  0.91404317     0.14100
H1268       H  0.00373867  0.09978493  0.53917844    -0.00200
H1269       H  0.95695166  0.12370328  0.92827697     0.14400
H1270       H  0.00764734  0.17954667  0.48823598     0.14100
O1271       O  0.97747309  0.27253699  0.78475842    -0.72300
O1272       O  0.98264130  0.21665943  0.69459163    -0.72500
O1273       O  0.98246000  0.21802385  0.78191318    -0.72400
O1274       O  0.97768210  0.27113119  0.69700423    -0.72400
O1275       O  0.51782780  0.27538618  0.69333197    -0.72400
O1276       O  0.52244142  0.22396407  0.78050078    -0.72400
O1277       O  0.52173229  0.22119407  0.69265840    -0.72300
O1278       O  0.51838760  0.27844863  0.78114387    -0.72500
V1279       V  0.98090459  0.24469073  0.73962244     1.35200
V1280       V  0.51925712  0.24969386  0.73696007     1.35200
C1281       C  0.99875298  0.28463995  0.79987833     0.76900
C1282       C  0.00581849  0.20869710  0.68038336     0.77000
C1283       C  0.00541412  0.21184052  0.79843757     0.76800
C1284       C  0.99920021  0.28112560  0.68154329     0.76800
C1285       C  0.49238313  0.35634716  0.53576887     0.85900
C1286       C  0.51879797  0.37329866  0.53312945    -0.54300
C1287       C  0.52134791  0.38704639  0.99711610     0.08900
C1288       C  0.49545630  0.38443293  0.96771465     0.19800
C1289       C  0.97495957  0.37455056  0.53312364    -0.55000
C1290       C  0.97411226  0.39132232  0.99999597     0.09000
C1291       C  0.49110540  0.33848646  0.99259466    -0.54600
C1292       C  0.49206741  0.35362508  0.95683867     0.09500
H1293       H  0.53460995  0.37363578  0.55833106     0.14100
H1294       H  0.49622914  0.39660731  0.93850074    -0.00200
H1295       H  0.95937816  0.37860139  0.55753855     0.14400
H1296       H  0.48915038  0.31646869  0.99027203     0.14100
C1297       C  0.97317329  0.30562264  0.86296467    -0.26900
C1298       C  0.99666567  0.30561332  0.83658949    -0.14900
C1299       C  0.51540212  0.32538526  0.84630997     0.35700
C1300       C  0.51346660  0.34216902  0.88465868    -0.26300
C1301       C  0.49084434  0.34047261  0.91227770    -0.15600
C1302       C  0.97148255  0.32243880  0.90117117     0.36800
N1303       N  0.94771167  0.32127830  0.92818817    -0.89800
H1304       H  0.95645037  0.29164023  0.85505119     0.17900
H1305       H  0.53044965  0.35551151  0.89415982     0.17900
N1306       N  0.53943398  0.32776808  0.82022268    -0.88800
H1307       H  0.94556421  0.30129042  0.93743204     0.35300
H1308       H  0.93629524  0.32660286  0.40939447     0.40400
H1309       H  0.53323969  0.33160523  0.78851506     0.40000
H1310       H  0.55042300  0.30949276  0.81987943     0.34900
C1311       C  0.51519861  0.30224857  0.61403026    -0.26900
C1312       C  0.99805233  0.30018981  0.64576278    -0.14900
C1313       C  0.97480421  0.31649456  0.63720381     0.35700
C1314       C  0.97532888  0.33401160  0.60284399    -0.26300
C1315       C  0.49255852  0.33751035  0.57375702    -0.15600
C1316       C  0.51480766  0.31932518  0.57912276     0.36800
N1317       N  0.53698901  0.31781213  0.54869583    -0.89800
H1318       H  0.53261678  0.28871775  0.61760828     0.17900
H1319       H  0.95677976  0.34534930  0.59718287     0.17900
N1320       N  0.95039582  0.31607547  0.66293758    -0.88800
H1321       H  0.53804967  0.29788809  0.53512326     0.35300
H1322       H  0.55533908  0.32195971  0.56577174     0.40400
H1323       H  0.95573767  0.32055750  0.69553620     0.40000
H1324       H  0.94173945  0.29666168  0.65962625     0.34900
C1325       C  0.98921876  0.16940219  0.82971625    -0.26900
C1326       C  0.00686502  0.19191078  0.83269859    -0.14900
C1327       C  0.52130114  0.19528910  0.86352397     0.35700
C1328       C  0.51941137  0.17748721  0.89717390    -0.26300
C1329       C  0.00412721  0.15567935  0.90138397    -0.15600
C1330       C  0.98833293  0.15082369  0.86272617     0.36800
N1331       N  0.97244970  0.12655591  0.85534046    -0.92800
H1332       H  0.97628278  0.16589894  0.80106411     0.17900
H1333       H  0.53403001  0.17981021  0.92393322     0.17900
N1334       N  0.54205943  0.21592865  0.86678989    -0.88800
H1335       H  0.95205743  0.13219051  0.84928428     0.35300
H1336       H  0.97983791  0.11603296  0.82736456     0.40400
H1337       H  0.53254211  0.23496727  0.86585731     0.40000
H1338       H  0.55523240  0.21315171  0.84025575     0.34900
C1339       C  0.52448774  0.18876926  0.61296433    -0.26900
C1340       C  0.00793749  0.18817364  0.64332418    -0.14900
C1341       C  0.98715926  0.16859370  0.63381012     0.35700
C1342       C  0.98831697  0.15226469  0.59475340    -0.26300
C1343       C  0.00961417  0.15538303  0.56508005    -0.15600
C1344       C  0.52510183  0.17230540  0.57417291     0.36800
N1345       N  0.54884019  0.17205605  0.54660398    -0.89800
H1346       H  0.54201308  0.20158350  0.62158415     0.17900
H1347       H  0.97190276  0.13800964  0.58648570     0.17900
N1348       N  0.96476871  0.16569122  0.66337674    -0.88800
H1349       H  0.55701872  0.15236218  0.54551689     0.35300
H1350       H  0.56410445  0.18494318  0.56012580     0.40400
H1351       H  0.97305153  0.15895776  0.69237025     0.40000
H1352       H  0.95116626  0.15059282  0.65137046     0.34900
C1353       C  0.91700055  0.44018897  0.97037478    -0.26900
C1354       C  0.91723701  0.45799470  0.00763161    -0.14900
C1355       C  0.94061562  0.45478728  0.53595020     0.35700
C1356       C  0.95992179  0.43377446  0.53135966    -0.26300
C1357       C  0.95619621  0.41563192  0.99871193    -0.15600
C1358       C  0.93613322  0.41878585  0.96587203     0.36800
N1359       N  0.93369548  0.39970577  0.92919695    -0.89800
H1360       H  0.90099871  0.44202323  0.94593422     0.17900
H1361       H  0.97541196  0.43175271  0.55658028     0.17900
N1362       N  0.94211550  0.47365393  0.57307422    -0.88800
H1363       H  0.93093871  0.38030712  0.94064652     0.35300
H1364       H  0.95203442  0.39975782  0.91178866     0.40400
H1365       H  0.96140961  0.48300871  0.57329466     0.40000
H1366       H  0.94073218  0.46265907  0.60107408     0.34900
C1367       C  0.90879300  0.07811422  0.50873998    -0.26900
C1368       C  0.91268753  0.04918422  0.00638522    -0.14900
C1369       C  0.93858763  0.04126049  0.98951456     0.35700
C1370       C  0.95854734  0.06099561  0.98281853    -0.26300
C1371       C  0.95567667  0.08945253  0.48942125    -0.15600
C1372       C  0.92887997  0.09776137  0.50170055     0.36800
N1373       N  0.92165435  0.12592678  0.50788007    -0.89800
H1374       H  0.88832422  0.08471584  0.51831737     0.17900
H1375       H  0.97815277  0.05469432  0.96905321     0.17900
N1376       N  0.94522238  0.01318009  0.98045225    -0.88800
H1377       H  0.90535374  0.13072892  0.00317233     0.35300
H1378       H  0.93800066  0.13748598  0.01808652     0.40400
H1379       H  0.96644845  0.50953269  0.50095164     0.40000
H1380       H  0.95586736  0.00935959  0.45534543     0.34900
C1381       C  0.80694143  0.47241733  0.88731572    -0.26900
C1382       C  0.80846847  0.49338862  0.85834720    -0.14900
C1383       C  0.82790272  0.51444029  0.86638124     0.35700
C1384       C  0.84449273  0.51467792  0.90427938    -0.26300
C1385       C  0.84167105  0.49455647  0.93441736    -0.15600
C1386       C  0.82318578  0.47287513  0.92536903     0.36800
N1387       N  0.82057317  0.45173516  0.95547004    -0.89800
H1388       H  0.79217689  0.45616374  0.88116690     0.17900
H1389       H  0.85878695  0.53123633  0.91131216     0.17900
N1390       N  0.83049100  0.53560307  0.83635339    -0.88800
H1391       H  0.83944020  0.44151603  0.95653147     0.35300
H1392       H  0.80591992  0.43740880  0.94430999     0.40400
H1393       H  0.82897841  0.04255610  0.81745715     0.40000
H1394       H  0.83286772  0.06348985  0.86192534     0.34900
C1395       C  0.84116560  0.02687953  0.62909273    -0.26900
C1396       C  0.84365053  0.50060726  0.59450257    -0.14900
C1397       C  0.82854923  0.47672005  0.60187960     0.35700
C1398       C  0.81149080  0.47577241  0.63814983    -0.26300
C1399       C  0.80825097  0.49843140  0.66729898    -0.15600
C1400       C  0.82399475  0.02594039  0.66565372     0.36800
N1401       N  0.82456262  0.04763680  0.69893706    -0.89800
H1402       H  0.85414036  0.04441782  0.62695583     0.17900
H1403       H  0.80004882  0.45729291  0.64268325     0.17900
N1404       N  0.83003665  0.45337184  0.57197045    -0.88800
H1405       H  0.83846679  0.06273153  0.69112171     0.35300
H1406       H  0.83197203  0.03954350  0.72751315     0.40400
H1407       H  0.83679754  0.43680760  0.58907888     0.40000
H1408       H  0.81019953  0.44909169  0.56007237     0.34900
C1409       C  0.56189339  0.45193608  0.98193678    -0.26900
C1410       C  0.58816204  0.44432053  0.99610442    -0.14900
C1411       C  0.59135806  0.42042073  0.50811961     0.35700
C1412       C  0.56983199  0.40135752  0.50523548    -0.26300
C1413       C  0.54450409  0.40629675  0.99129312    -0.15600
C1414       C  0.53992127  0.43344805  0.98052047     0.36800
N1415       N  0.51278687  0.44294479  0.97092507    -0.89800
H1416       H  0.55793442  0.47276416  0.97429536     0.17900
H1417       H  0.57389113  0.38063918  0.51365085     0.17900
N1418       N  0.61851161  0.41224603  0.52111714    -0.88800
H1419       H  0.51299228  0.45085441  0.94010533     0.35300
H1420       H  0.50792178  0.45878821  0.99363104     0.40400
H1421       H  0.63162506  0.41478798  0.49490150     0.40000
H1422       H  0.62112010  0.38692132  0.01796865     0.34900
C1423       C  0.59029894  0.06815780  0.97954226    -0.26900
C1424       C  0.58266207  0.04445804  0.99939154    -0.14900
C1425       C  0.55383915  0.03931511  0.51661714     0.35700
C1426       C  0.53511404  0.06015924  0.50854207    -0.26300
C1427       C  0.54271121  0.08295219  0.48582244    -0.15600
C1428       C  0.57119407  0.08910972  0.97322598     0.36800
N1429       N  0.58013448  0.11399396  0.95556400    -0.89800
H1430       H  0.61155296  0.07074324  0.97036640     0.17900
H1431       H  0.51441264  0.05829701  0.52049053     0.17900
N1432       N  0.54458830  0.01727515  0.54156416    -0.88800
H1433       H  0.60107431  0.11306036  0.94811447     0.35300
H1434       H  0.57782561  0.12955931  0.97981484     0.40400
H1435       H  0.56289460  0.50210801  0.54415666     0.40000
H1436       H  0.52896784  0.00707358  0.52368984     0.34900
C1437       C  0.67651666  0.46502245  0.91647478    -0.26900
C1438       C  0.65893186  0.48712457  0.92620723    -0.14900
C1439       C  0.65523376  0.01835265  0.89905988     0.35700
C1440       C  0.67288155  0.01698218  0.86296366    -0.26300
C1441       C  0.69440559  0.48722719  0.85400442    -0.15600
C1442       C  0.69415161  0.46482395  0.88066855     0.36800
N1443       N  0.71283713  0.44253028  0.87309418    -0.89800
H1444       H  0.67743192  0.44833603  0.93800090     0.17900
H1445       H  0.67208791  0.03295103  0.84013375     0.17900
N1446       N  0.63669150  0.04091418  0.90599747    -0.88800
H1447       H  0.72516014  0.44102378  0.90090146     0.35300
H1448       H  0.70128937  0.42468076  0.86878261     0.40400
H1449       H  0.61665715  0.03333368  0.90303517     0.40000
H1450       H  0.63884094  0.05466674  0.88157881     0.34900
C1451       C  0.66991631  0.01390340  0.66861845    -0.26900
C1452       C  0.69552363  0.49256443  0.66470074    -0.14900
C1453       C  0.69894947  0.47512669  0.62729269     0.35700
C1454       C  0.68015225  0.47643816  0.59256879    -0.26300
C1455       C  0.65822692  0.49534214  0.59334188    -0.15600
C1456       C  0.65058125  0.01375697  0.63421322     0.36800
N1457       N  0.62447706  0.02689487  0.64138672    -0.89800
H1458       H  0.66580340  0.02568204  0.69868231     0.17900
H1459       H  0.68303505  0.46284839  0.56405394     0.17900
N1460       N  0.72193013  0.45664662  0.62412142    -0.88800
H1461       H  0.62353906  0.03640672  0.67258597     0.35300
H1462       H  0.60940907  0.01174357  0.63989746     0.40400
H1463       H  0.73988745  0.46829847  0.62389329     0.40000
H1464       H  0.72134153  0.44507769  0.59458064     0.34900
C1465       C  0.64414201  0.49130913  0.04881721     0.85900
C1466       C  0.62575525  0.51653703  0.04403506    -0.54300
C1467       C  0.60556616  0.51925546  0.50916705     0.08900
C1468       C  0.60986779  0.99612374  0.47993852     0.19800
C1469       C  0.62228459  0.97695429  0.04498660    -0.55000
C1470       C  0.60692853  0.97106960  0.50747271     0.09000
C1471       C  0.66099249  0.49008428  0.00656618    -0.54600
C1472       C  0.64265678  0.49391188  0.47236923     0.09500
H1473       H  0.62546805  0.53410183  0.06691741     0.14100
H1474       H  0.59783387  0.99497477  0.44903077    -0.00200
H1475       H  0.62120712  0.96185977  0.06932534     0.14400
H1476       H  0.67996828  0.49605350  0.51025946     0.14100
O1477       O  0.71919424  0.97973075  0.30497491    -0.72300
O1478       O  0.77633671  0.98055499  0.22166069    -0.72500
O1479       O  0.77454224  0.97999967  0.30900041    -0.72400
O1480       O  0.72160614  0.98016407  0.21760197    -0.72400
O1481       O  0.72107387  0.51520877  0.22335436    -0.72400
O1482       O  0.77644219  0.51693188  0.31203693    -0.72400
O1483       O  0.77614884  0.51848451  0.22491974    -0.72300
O1484       O  0.72095392  0.51387158  0.31068350    -0.72500
V1485       V  0.74789210  0.98097232  0.26352185     1.35200
V1486       V  0.74868038  0.51529184  0.26775124     1.35200
C1487       C  0.71018193  0.00165242  0.32304954     0.76900
C1488       C  0.78479109  0.00278825  0.20807343     0.77000
C1489       C  0.78465560  0.00196138  0.32533309     0.76800
C1490       C  0.71183883  0.00219744  0.20490145     0.76800
C1491       C  0.85711539  0.00540783  0.05792951     0.85900
C1492       C  0.87632011  0.98071216  0.05196216    -0.54300
C1493       C  0.89369069  0.98077092  0.51319909     0.08900
C1494       C  0.88749503  0.00398926  0.48313222     0.19800
C1495       C  0.87639659  0.52789415  0.05036969    -0.55000
C1496       C  0.89390280  0.52591914  0.50967265     0.09000
C1497       C  0.83905729  0.00472191  0.01678690    -0.54600
C1498       C  0.85604041  0.00344460  0.47619215     0.09500
H1499       H  0.87896219  0.96577752  0.07637475     0.14100
H1500       H  0.89929377  0.00271449  0.45235014    -0.00200
H1501       H  0.87878253  0.54469133  0.07427110     0.14400
H1502       H  0.81914251  0.00513302  0.51415292     0.14100
C1503       C  0.00076067  0.64055833  0.43828799     0.85900
C1504       C  0.52500017  0.61932400  0.44068533    -0.54300
C1505       C  0.53150714  0.60169270  0.97674258     0.08900
C1506       C  0.00045068  0.61249731  0.00913776     0.19800
C1507       C  0.97440895  0.62367513  0.44319063    -0.55000
C1508       C  0.97336939  0.60865921  0.98342691     0.09000
C1509       C  0.00201988  0.65808330  0.48127330    -0.54600
C1510       C  0.00357475  0.64342847  0.01686881     0.09500
H1511       H  0.53929364  0.61655689  0.41391557     0.14100
H1512       H  0.00097392  0.60172690  0.03983456    -0.00200
H1513       H  0.95709376  0.62315605  0.42077896     0.14400
H1514       H  0.00315614  0.67917655  0.97985248     0.14100
O1515       O  0.97467257  0.77350707  0.28151996    -0.72300
O1516       O  0.98032864  0.71760966  0.19140131    -0.72500
O1517       O  0.97978963  0.71906545  0.27860939    -0.72400
O1518       O  0.97508559  0.77201338  0.19398861    -0.72400
O1519       O  0.52473198  0.77299336  0.19334577    -0.72400
O1520       O  0.52668043  0.72277098  0.28266511    -0.72400
O1521       O  0.52892278  0.71875573  0.19504816    -0.72300
O1522       O  0.52267188  0.77700416  0.28093926    -0.72500
V1523       V  0.97831787  0.74565720  0.23639501     1.35200
V1524       V  0.52490000  0.74778345  0.23793498     1.35200
C1525       C  0.99590164  0.78545606  0.29720576     0.76900
C1526       C  0.00357274  0.71011012  0.17684443     0.77000
C1527       C  0.00278294  0.71291842  0.29487163     0.76800
C1528       C  0.99652512  0.78250448  0.17924735     0.76800
C1529       C  0.50148135  0.85544383  0.03535592     0.85900
C1530       C  0.52642158  0.87437215  0.03209838    -0.54300
C1531       C  0.52430772  0.88628859  0.49604057     0.08900
C1532       C  0.49838770  0.88257682  0.46668620     0.19800
C1533       C  0.96883605  0.87708849  0.03464782    -0.55000
C1534       C  0.97115825  0.89234539  0.49753842     0.09000
C1535       C  0.49582775  0.83650032  0.49168905    -0.54600
C1536       C  0.49599294  0.85157462  0.45584018     0.09500
H1537       H  0.54198345  0.87678855  0.05755761     0.14100
H1538       H  0.49868364  0.89463341  0.43737388    -0.00200
H1539       H  0.95410776  0.88161761  0.06017847     0.14400
H1540       H  0.49452899  0.81443334  0.48948010     0.14100
C1541       C  0.97052493  0.80512898  0.36135176    -0.26900
C1542       C  0.99365407  0.80609343  0.33440253    -0.14900
C1543       C  0.51711922  0.82532877  0.34291211     0.35700
C1544       C  0.51514873  0.84197383  0.38139879    -0.26300
C1545       C  0.49413275  0.83815842  0.41133394    -0.15600
C1546       C  0.96865593  0.82152656  0.40008891     0.36800
N1547       N  0.94560078  0.81879867  0.42846450    -0.89800
H1548       H  0.95435825  0.79053774  0.35333276     0.17900
H1549       H  0.53107185  0.85688263  0.38918213     0.17900
N1550       N  0.53965246  0.82978413  0.31451175    -0.88800
H1551       H  0.93194319  0.80399536  0.41560944     0.35300
H1552       H  0.93306533  0.83863933  0.93028788     0.40400
H1553       H  0.53180343  0.83274499  0.28337147     0.40000
H1554       H  0.55238871  0.81263978  0.31328004     0.34900
C1555       C  0.52552531  0.80486034  0.11944243    -0.26900
C1556       C  0.99493226  0.80191288  0.14442174    -0.14900
C1557       C  0.97282448  0.82035539  0.14069937     0.35700
C1558       C  0.97219586  0.83786690  0.10647540    -0.26300
C1559       C  0.50201809  0.83730113  0.07437164    -0.15600
C1560       C  0.52593429  0.82245834  0.08506981     0.36800
N1561       N  0.55060400  0.82451966  0.06033972    -0.89800
H1562       H  0.54423900  0.79402424  0.12713309     0.17900
H1563       H  0.95461010  0.85111475  0.10487027     0.17900
N1564       N  0.95090455  0.82224762  0.17157092    -0.88800
H1565       H  0.55562367  0.80512182  0.04715388     0.35300
H1566       H  0.56648262  0.83097010  0.08161422     0.40400
H1567       H  0.95936567  0.82569699  0.20275542     0.40000
H1568       H  0.94006621  0.80392590  0.17005017     0.34900
C1569       C  0.98967861  0.66904655  0.32454727    -0.26900
C1570       C  0.00440888  0.69345989  0.32939812    -0.14900
C1571       C  0.51788707  0.70140467  0.37139456     0.35700
C1572       C  0.51729126  0.68399698  0.40555194    -0.26300
C1573       C  0.00284182  0.65749240  0.39806405    -0.15600
C1574       C  0.98954261  0.65058272  0.35774768     0.36800
N1575       N  0.97704776  0.62451671  0.34921135    -0.92800
H1576       H  0.97861035  0.66402119  0.29442290     0.17900
H1577       H  0.52837397  0.69051882  0.43484492     0.17900
N1578       N  0.53055438  0.72752675  0.37900554    -0.88800
H1579       H  0.95645426  0.62758362  0.34053717     0.35300
H1580       H  0.98688109  0.61484679  0.32248815     0.40400
H1581       H  0.51606824  0.74258182  0.37262022     0.40000
H1582       H  0.54705482  0.72900788  0.35776118     0.34900
C1583       C  0.53421144  0.68643326  0.11556459    -0.26900
C1584       C  0.00576070  0.68995140  0.13941957    -0.14900
C1585       C  0.98659685  0.66857937  0.13232573     0.35700
C1586       C  0.98717880  0.65252192  0.09295578    -0.26300
C1587       C  0.00626371  0.65769463  0.06051835    -0.15600
C1588       C  0.53575287  0.66998962  0.07694061     0.36800
N1589       N  0.55973856  0.67077211  0.05032743    -0.89800
H1590       H  0.55121601  0.69990592  0.12431853     0.17900
H1591       H  0.97200625  0.63666759  0.08686730     0.17900
N1592       N  0.96648553  0.66348289  0.16482951    -0.88800
H1593       H  0.57673068  0.66534381  0.06907569     0.35300
H1594       H  0.56250964  0.69081033  0.04166052     0.40400
H1595       H  0.97709025  0.65753236  0.19247056     0.40000
H1596       H  0.95387930  0.64715419  0.15447512     0.34900
C1597       C  0.91590674  0.94329093  0.46758395    -0.26900
C1598       C  0.91588575  0.96040651  0.50562808    -0.14900
C1599       C  0.93459545  0.95754302  0.03640335     0.35700
C1600       C  0.95357102  0.93628270  0.03156912    -0.26300
C1601       C  0.95419722  0.91739436  0.49605072    -0.15600
C1602       C  0.93474878  0.92163804  0.46267028     0.36800
N1603       N  0.93259517  0.90345024  0.42489210    -0.89800
H1604       H  0.90032599  0.94587620  0.44271378     0.17900
H1605       H  0.96957382  0.93450580  0.05605790     0.17900
N1606       N  0.93707080  0.97703649  0.07259065    -0.88800
H1607       H  0.92900892  0.88392929  0.43512047     0.35300
H1608       H  0.95132284  0.90339383  0.40850033     0.40400
H1609       H  0.95642852  0.98616094  0.07131319     0.40000
H1610       H  0.93620043  0.96660993  0.10121881     0.34900
C1611       C  0.90604879  0.57545043  0.01247251    -0.26900
C1612       C  0.91424296  0.54718416  0.49982142    -0.14900
C1613       C  0.94107644  0.54025285  0.48585315     0.35700
C1614       C  0.96009596  0.56082299  0.47881201    -0.26300
C1615       C  0.95239244  0.58827049  0.99304188    -0.15600
C1616       C  0.92569519  0.59570659  0.00688120     0.36800
N1617       N  0.91813388  0.62358053  0.01590754    -0.89800
H1618       H  0.88558202  0.58141443  0.02303016     0.17900
H1619       H  0.98043368  0.55528032  0.46723217     0.17900
N1620       N  0.94956550  0.51241299  0.48037392    -0.88800
H1621       H  0.92033858  0.63303057  0.47833943     0.35300
H1622       H  0.93127573  0.63240393  0.53068567     0.40400
H1623       H  0.96261353  0.00852026  0.99889209     0.40000
H1624       H  0.95422298  0.50905498  0.95331685     0.34900
C1625       C  0.80610221  0.97934141  0.38753355    -0.26900
C1626       C  0.80574371  0.00147323  0.36063695    -0.14900
C1627       C  0.82489230  0.02283948  0.36887577     0.35700
C1628       C  0.84269420  0.02231681  0.40536124    -0.26300
C1629       C  0.84163869  0.00094019  0.43351595    -0.15600
C1630       C  0.82367825  0.97902554  0.42386234     0.36800
N1631       N  0.82286078  0.95663469  0.45162380    -0.89800
H1632       H  0.79187754  0.96261805  0.38142447     0.17900
H1633       H  0.85655820  0.03916158  0.41293632     0.17900
N1634       N  0.82602996  0.04504474  0.34055102    -0.88800
H1635       H  0.82726925  0.93884175  0.43279995     0.35300
H1636       H  0.80282713  0.95509123  0.46333338     0.40400
H1637       H  0.83355844  0.53079780  0.30888096     0.40000
H1638       H  0.84238772  0.55280487  0.35017052     0.34900
C1639       C  0.83820742  0.52392271  0.12725113    -0.26900
C1640       C  0.83978587  0.00448126  0.09916529    -0.14900
C1641       C  0.82227234  0.98194537  0.10464489     0.35700
C1642       C  0.80538631  0.98136595  0.14120157    -0.26300
C1643       C  0.80499462  0.00306724  0.17257968    -0.15600
C1644       C  0.82117773  0.52290406  0.16373961     0.36800
N1645       N  0.81860191  0.54648136  0.19289620    -0.89800
H1646       H  0.84819260  0.54299103  0.12236258     0.17900
H1647       H  0.79176424  0.96418339  0.14416654     0.17900
N1648       N  0.82113647  0.95970923  0.07254986    -0.88800
H1649       H  0.81122806  0.56251610  0.17512345     0.35300
H1650       H  0.83821585  0.55171390  0.20480406     0.40400
H1651       H  0.82619602  0.94186203  0.08772895     0.40000
H1652       H  0.80088489  0.95793712  0.06095247     0.34900
C1653       C  0.56095685  0.95384860  0.48151900    -0.26900
C1654       C  0.58750070  0.94811987  0.49686623    -0.14900
C1655       C  0.59583042  0.92472325  0.00379601     0.35700
C1656       C  0.57557555  0.90434412  0.00089533    -0.26300
C1657       C  0.54637328  0.90710116  0.49089503    -0.15600
C1658       C  0.54034579  0.93381134  0.47892186     0.36800
N1659       N  0.51300687  0.94132841  0.46664704    -0.89800
H1660       H  0.55558236  0.97442283  0.47395044     0.17900
H1661       H  0.58103675  0.88380617  0.00867004     0.17900
N1662       N  0.62368936  0.91812273  0.01543337    -0.88800
H1663       H  0.51372992  0.94879281  0.43553452     0.35300
H1664       H  0.50636199  0.95709117  0.48825829     0.40400
H1665       H  0.63612989  0.92206479  0.98897815     0.40000
H1666       H  0.62356313  0.89319742  0.52242260     0.34900
C1667       C  0.59304379  0.56351095  0.47968381    -0.26900
C1668       C  0.58464137  0.54007680  0.49965038    -0.14900
C1669       C  0.56188125  0.53557368  0.01363741     0.35700
C1670       C  0.54360946  0.55667954  0.00513510    -0.26300
C1671       C  0.55204884  0.57971612  0.98389269    -0.15600
C1672       C  0.57438671  0.58468043  0.47193792     0.36800
N1673       N  0.58412241  0.60927825  0.45430803    -0.89800
H1674       H  0.61451636  0.56570939  0.47148193     0.17900
H1675       H  0.52260073  0.55498306  0.01589507     0.17900
N1676       N  0.55205147  0.51407200  0.03916517    -0.88800
H1677       H  0.60517723  0.60793770  0.44780279     0.35300
H1678       H  0.58168029  0.62502402  0.47822795     0.40400
H1679       H  0.56244483  0.00547025  0.04334133     0.40000
H1680       H  0.53603146  0.50417264  0.02188788     0.34900
C1681       C  0.65587116  0.97862329  0.40185549    -0.26900
C1682       C  0.65454035  0.00145120  0.43100771    -0.14900
C1683       C  0.65491523  0.51171431  0.39964131     0.35700
C1684       C  0.67292822  0.51088117  0.36398252    -0.26300
C1685       C  0.68922670  0.00161811  0.35787744    -0.15600
C1686       C  0.67322280  0.97842332  0.36549381     0.36800
N1687       N  0.67479213  0.95450437  0.33691584    -0.89800
H1688       H  0.64450672  0.96042822  0.40852768     0.17900
H1689       H  0.67241560  0.52720895  0.34179084     0.17900
N1690       N  0.63621710  0.53412387  0.40679436    -0.88800
H1691       H  0.68103101  0.93828334  0.35524057     0.35300
H1692       H  0.65503129  0.95024638  0.32467929     0.40400
H1693       H  0.61624499  0.52648460  0.40294838     0.40000
H1694       H  0.63858693  0.54821794  0.38294457     0.34900
C1695       C  0.66999823  0.50386252  0.16783374    -0.26900
C1696       C  0.69293099  0.00194093  0.16702889    -0.14900
C1697       C  0.69882950  0.98578655  0.12905707     0.35700
C1698       C  0.68077232  0.98606011  0.09328044    -0.26300
C1699       C  0.65710587  0.00273058  0.09362175    -0.15600
C1700       C  0.65205910  0.50257729  0.13154469     0.36800
N1701       N  0.62419677  0.51205067  0.13652457    -0.89800
H1702       H  0.66324812  0.51339841  0.19851390     0.17900
H1703       H  0.68550593  0.97329225  0.06451190     0.17900
N1704       N  0.72350573  0.96956428  0.12660731    -0.88800
H1705       H  0.62074466  0.51977095  0.16836777     0.35300
H1706       H  0.61125230  0.49524591  0.13127461     0.40400
H1707       H  0.74026127  0.98286698  0.12833918     0.40000
H1708       H  0.72473424  0.95868005  0.09651218     0.34900
C1709       C  0.64033383  0.49636466  0.55187022     0.85900
C1710       C  0.62108941  0.52100240  0.54637346    -0.54300
C1711       C  0.60972952  0.51542199  0.00745383     0.08900
C1712       C  0.61142334  0.99935246  0.97839785     0.19800
C1713       C  0.62189676  0.97308339  0.54542947    -0.55000
C1714       C  0.60762237  0.97484951  0.00674278     0.09000
C1715       C  0.65761092  0.49556141  0.51013001    -0.54600
C1716       C  0.64556042  0.48905617  0.96931375     0.09500
H1717       H  0.62002296  0.53894222  0.56820691     0.14100
H1718       H  0.59941458  0.99786777  0.94749277    -0.00200
H1719       H  0.62125398  0.95778823  0.56948218     0.14400
H1720       H  0.68329990  0.49074494  0.00556411     0.14100
O1721       O  0.72271410  0.97556750  0.80313611    -0.72300
O1722       O  0.77849606  0.97952731  0.71807173    -0.72500
O1723       O  0.77770495  0.97829481  0.80563313    -0.72400
O1724       O  0.72375780  0.97673791  0.71544270    -0.72400
O1725       O  0.72280228  0.51474993  0.72093052    -0.72400
O1726       O  0.77836782  0.51544125  0.80904545    -0.72400
O1727       O  0.77792496  0.51782841  0.72178634    -0.72300
O1728       O  0.72301402  0.51229434  0.80794527    -0.72500
V1729       V  0.75060408  0.97839455  0.76071476     1.35200
V1730       V  0.75059285  0.51423607  0.76484317     1.35200
C1731       C  0.71240074  0.99692535  0.82111153     0.76900
C1732       C  0.78638635  0.00222728  0.70548213     0.77000
C1733       C  0.78586044  0.00059240  0.82367246     0.76800
C1734       C  0.71340104  0.99851890  0.70267825     0.76800
C1735       C  0.85915603  0.00663151  0.55534934     0.85900
C1736       C  0.87880116  0.98218055  0.55065399    -0.54300
C1737       C  0.89079891  0.97963159  0.01413601     0.08900
C1738       C  0.88479105  0.00341092  0.98518905     0.19800
C1739       C  0.87907068  0.52713612  0.54740062    -0.55000
C1740       C  0.89145130  0.52676940  0.01291573     0.09000
C1741       C  0.84151072  0.00512071  0.51382969    -0.54600
C1742       C  0.85337720  0.00351484  0.97896247     0.09500
H1743       H  0.88119712  0.96750134  0.57551309     0.14100
H1744       H  0.89612191  0.00232189  0.95399085    -0.00200
H1745       H  0.88133695  0.54410787  0.57102428     0.14400
H1746       H  0.81669707  0.00485960  0.01746883     0.14100
C1747       C  0.99829846  0.63889463  0.93763920     0.85900
C1748       C  0.53072582  0.61660486  0.94045048    -0.54300
C1749       C  0.52546446  0.60368103  0.47619045     0.08900
C1750       C  0.00015436  0.61285226  0.50842580     0.19800
C1751       C  0.97195538  0.62277411  0.94667471    -0.55000
C1752       C  0.97439187  0.60886614  0.47931244     0.09000
C1753       C  0.00219715  0.65712378  0.97959022    -0.54600
C1754       C  0.00224958  0.64377466  0.51779211     0.09500
H1755       H  0.54475838  0.61327411  0.91343604     0.14100
H1756       H  0.99964408  0.60137808  0.53844128    -0.00200
H1757       H  0.95345663  0.62201492  0.92702703     0.14400
H1758       H  0.00199834  0.68017487  0.48310191     0.14100
O1759       O  0.97277070  0.77397883  0.78329074    -0.72300
O1760       O  0.97731164  0.71891909  0.69195899    -0.72500
O1761       O  0.97727732  0.71942883  0.77924947    -0.72400
O1762       O  0.97306340  0.77344647  0.69573091    -0.72400
O1763       O  0.52543336  0.77270937  0.69423368    -0.72400
O1764       O  0.53035659  0.72206346  0.78270064    -0.72400
O1765       O  0.52965897  0.71853698  0.69506060    -0.72300
O1766       O  0.52608800  0.77638184  0.78203444    -0.72500
V1767       V  0.97594961  0.74654012  0.73761442     1.35200
V1768       V  0.52702491  0.74735801  0.73852314     1.35200
C1769       C  0.99414796  0.78557227  0.79901569     0.76900
C1770       C  0.00036653  0.71110736  0.67711645     0.77000
C1771       C  0.00025812  0.71254251  0.79498724     0.76800
C1772       C  0.99473622  0.78350707  0.68087544     0.76800
C1773       C  0.49788379  0.85303572  0.53511385     0.85900
C1774       C  0.52380291  0.87064220  0.53153483    -0.54300
C1775       C  0.52656241  0.88930454  0.99579602     0.08900
C1776       C  0.50109373  0.88407580  0.96595363     0.19800
C1777       C  0.97012355  0.87704787  0.53313813    -0.55000
C1778       C  0.96930786  0.89231190  0.99888581     0.09000
C1779       C  0.50086419  0.83833114  0.99257996    -0.54600
C1780       C  0.50036114  0.85290422  0.95627363     0.09500
H1781       H  0.53978571  0.87159336  0.55647884     0.14100
H1782       H  0.50095653  0.89581062  0.93623237    -0.00200
H1783       H  0.95509986  0.88172634  0.55812635     0.14400
H1784       H  0.50068536  0.81621984  0.99112930     0.14100
C1785       C  0.96877571  0.80553188  0.86292641    -0.26900
C1786       C  0.99202166  0.80622732  0.83612968    -0.14900
C1787       C  0.52203249  0.82448112  0.84499920     0.35700
C1788       C  0.52003043  0.84178038  0.88274048    -0.26300
C1789       C  0.49873567  0.83874787  0.91246538    -0.15600
C1790       C  0.96681994  0.82225747  0.90126978     0.36800
N1791       N  0.94356255  0.82007887  0.92943642    -0.89800
H1792       H  0.95254761  0.79098582  0.85503844     0.17900
H1793       H  0.53608600  0.85660808  0.89016022     0.17900
N1794       N  0.54494952  0.82796038  0.81693352    -0.88800
H1795       H  0.92976472  0.80537712  0.91667311     0.35300
H1796       H  0.93485320  0.83720072  0.42974311     0.40400
H1797       H  0.53748661  0.83072876  0.78550992     0.40000
H1798       H  0.55717295  0.81045734  0.81654149     0.34900
C1799       C  0.52145882  0.79874629  0.61323264    -0.26900
C1800       C  0.99376493  0.80262673  0.64548260    -0.14900
C1801       C  0.97281274  0.82231005  0.64198546     0.35700
C1802       C  0.97281394  0.83942044  0.60714650    -0.26300
C1803       C  0.49885810  0.83474774  0.57415601    -0.15600
C1804       C  0.52065593  0.81584519  0.57821637     0.36800
N1805       N  0.54202517  0.81369730  0.54642207    -0.89800
H1806       H  0.53830358  0.78437925  0.61535164     0.17900
H1807       H  0.95618505  0.85382891  0.60619359     0.17900
N1808       N  0.95157057  0.82594030  0.67380277    -0.88800
H1809       H  0.54226569  0.79373220  0.53290895     0.35300
H1810       H  0.56085779  0.81737946  0.56235169     0.40400
H1811       H  0.96076579  0.82935139  0.70447623     0.40000
H1812       H  0.93976752  0.80823884  0.67360826     0.34900
C1813       C  0.98150118  0.67181490  0.82837554    -0.26900
C1814       C  0.00174796  0.69203230  0.82845658    -0.14900
C1815       C  0.52840351  0.69549890  0.86781807     0.35700
C1816       C  0.52764521  0.67743224  0.90123881    -0.26300
C1817       C  0.99948782  0.65532607  0.89656873    -0.15600
C1818       C  0.98081578  0.65283866  0.86077832     0.36800
N1819       N  0.96235925  0.63034556  0.85494099    -0.92800
H1820       H  0.96638746  0.67024284  0.80221740     0.17900
H1821       H  0.54162147  0.68102944  0.92855278     0.17900
N1822       N  0.54660611  0.71833804  0.87269722    -0.88800
H1823       H  0.94233126  0.63799705  0.85254699     0.35300
H1824       H  0.96699931  0.61976753  0.82549234     0.40400
H1825       H  0.53504880  0.73619349  0.87074032     0.40000
H1826       H  0.56081567  0.71710142  0.84739506     0.34900
C1827       C  0.53134830  0.68771856  0.61378096    -0.26900
C1828       C  0.00219128  0.69098916  0.63953277    -0.14900
C1829       C  0.98189210  0.67079898  0.63076202     0.35700
C1830       C  0.98323818  0.65416003  0.59200299    -0.26300
C1831       C  0.00402879  0.65780388  0.56163062    -0.15600
C1832       C  0.53139901  0.67152364  0.57496753     0.36800
N1833       N  0.55346575  0.67381956  0.54482758    -0.89800
H1834       H  0.54785558  0.70222948  0.61990674     0.17900
H1835       H  0.96739237  0.63914708  0.58461801     0.17900
N1836       N  0.95984026  0.66752158  0.66081885    -0.88800
H1837       H  0.57187609  0.66931905  0.56078449     0.35300
H1838       H  0.55436575  0.69401944  0.53610574     0.40400
H1839       H  0.96852367  0.66117799  0.68978201     0.40000
H1840       H  0.94653123  0.65203984  0.64928139     0.34900
C1841       C  0.91196306  0.94128208  0.96934453    -0.26900
C1842       C  0.91303512  0.95951795  0.00596995    -0.14900
C1843       C  0.93643318  0.95718444  0.53751792     0.35700
C1844       C  0.95539723  0.93590917  0.53236575    -0.26300
C1845       C  0.95156560  0.91675236  0.99670232    -0.15600
C1846       C  0.93094474  0.91970679  0.96436269     0.36800
N1847       N  0.92790878  0.90089107  0.92723903    -0.89800
H1848       H  0.89554759  0.94305978  0.94556730     0.17900
H1849       H  0.97061145  0.93321230  0.55778155     0.17900
N1850       N  0.93794990  0.97540653  0.57544319    -0.88800
H1851       H  0.90917931  0.89078836  0.93025029     0.35300
H1852       H  0.94326071  0.88608359  0.92638610     0.40400
H1853       H  0.95743892  0.98437842  0.57655919     0.40000
H1854       H  0.93605182  0.96395067  0.60285548     0.34900
C1855       C  0.90715710  0.57482391  0.50657537    -0.26900
C1856       C  0.91248236  0.54773645  0.00447701    -0.14900
C1857       C  0.93938959  0.54044869  0.99123919     0.35700
C1858       C  0.95889408  0.56075072  0.98515896    -0.26300
C1859       C  0.95316942  0.58825606  0.48644070    -0.15600
C1860       C  0.92630700  0.59536530  0.49986426     0.36800
N1861       N  0.91808358  0.62318487  0.50729795    -0.89800
H1862       H  0.88661268  0.58048374  0.51715876     0.17900
H1863       H  0.97917781  0.55493428  0.97363429     0.17900
N1864       N  0.94741947  0.51250709  0.98528032    -0.88800
H1865       H  0.92055078  0.63406928  0.98761460     0.35300
H1866       H  0.93156731  0.63197056  0.03970703     0.40400
H1867       H  0.96538882  0.01064347  0.50838339     0.40000
H1868       H  0.95607565  0.50877283  0.44828824     0.34900
C1869       C  0.80824804  0.97775798  0.88500288    -0.26900
C1870       C  0.80586835  0.00095360  0.86053113    -0.14900
C1871       C  0.82150705  0.02437130  0.87320311     0.35700
C1872       C  0.83798450  0.02445183  0.91114196    -0.26300
C1873       C  0.83916230  0.00165569  0.93631599    -0.15600
C1874       C  0.82459643  0.97803973  0.92279941     0.36800
N1875       N  0.82610523  0.95442935  0.94790895    -0.89800
H1876       H  0.79659111  0.95958292  0.87572525     0.17900
H1877       H  0.84930987  0.04258454  0.92184161     0.17900
N1878       N  0.82048364  0.04799588  0.84781777    -0.88800
H1879       H  0.83350361  0.93824707  0.92782535     0.35300
H1880       H  0.80617048  0.94963495  0.95736915     0.40400
H1881       H  0.83738170  0.52659260  0.80684863     0.40000
H1882       H  0.84558539  0.54957549  0.84712530     0.34900
C1883       C  0.84042241  0.52329178  0.62409838    -0.26900
C1884       C  0.84133017  0.00570862  0.59621481    -0.14900
C1885       C  0.82392342  0.98303667  0.60126351     0.35700
C1886       C  0.80692812  0.98212170  0.63762567    -0.26300
C1887       C  0.80639652  0.00348131  0.66960531    -0.15600
C1888       C  0.82287152  0.52241818  0.66002056     0.36800
N1889       N  0.82005781  0.54603527  0.68901289    -0.89800
H1890       H  0.85074516  0.54223543  0.61953902     0.17900
H1891       H  0.79345677  0.96477921  0.64015451     0.17900
N1892       N  0.82310490  0.96088552  0.56898480    -0.88800
H1893       H  0.81302039  0.56207779  0.67095217     0.35300
H1894       H  0.83954659  0.55118327  0.70153909     0.40400
H1895       H  0.82826605  0.94302500  0.58405253     0.40000
H1896       H  0.80291579  0.95896948  0.55715977     0.34900
C1897       C  0.56196317  0.95715456  0.98013340    -0.26900
C1898       C  0.58855445  0.95177021  0.99564939    -0.14900
C1899       C  0.59426876  0.92097644  0.50539064     0.35700
C1900       C  0.57365974  0.90086980  0.50254636    -0.26300
C1901       C  0.54815927  0.91029309  0.98978388    -0.15600
C1902       C  0.54161860  0.93685735  0.97783833     0.36800
N1903       N  0.51405149  0.94392150  0.96609103    -0.89800
H1904       H  0.55637327  0.97761505  0.97229432     0.17900
H1905       H  0.57880984  0.88028499  0.51045822     0.17900
N1906       N  0.62199043  0.91397129  0.51719616    -0.88800
H1907       H  0.51438088  0.95140372  0.93497057     0.35300
H1908       H  0.50735241  0.95959752  0.98782094     0.40400
H1909       H  0.63453326  0.91754296  0.49073581     0.40000
H1910       H  0.62563799  0.89735896  0.02035134     0.34900
C1911       C  0.59819983  0.56024053  0.97926727    -0.26900
C1912       C  0.58934467  0.53690711  0.99906068    -0.14900
C1913       C  0.55702398  0.53799948  0.51324255     0.35700
C1914       C  0.53831106  0.55866117  0.50425511    -0.26300
C1915       C  0.54638116  0.58197080  0.48335974    -0.15600
C1916       C  0.57998142  0.58178676  0.97178549     0.36800
N1917       N  0.59007157  0.60606109  0.95356318    -0.89800
H1918       H  0.61968153  0.56206416  0.97096598     0.17900
H1919       H  0.51726835  0.55642219  0.51451126     0.17900
N1920       N  0.54739852  0.51609594  0.53810375    -0.88800
H1921       H  0.61101980  0.60421534  0.94650863     0.35300
H1922       H  0.58820384  0.62197392  0.97734573     0.40400
H1923       H  0.56011739  0.00308450  0.54642310     0.40000
H1924       H  0.53198938  0.50577717  0.51993598     0.34900
C1925       C  0.67556987  0.97651589  0.92274620    -0.26900
C1926       C  0.65706504  0.99821260  0.92968474    -0.14900
C1927       C  0.65803087  0.50888145  0.89839551     0.35700
C1928       C  0.67594237  0.50882413  0.86273195    -0.26300
C1929       C  0.69202850  0.99567442  0.85659096    -0.15600
C1930       C  0.69294292  0.97485784  0.88644372     0.36800
N1931       N  0.71260916  0.95304228  0.88145291    -0.89800
H1932       H  0.67698697  0.96117027  0.94660763     0.17900
H1933       H  0.67587780  0.52598790  0.84217196     0.17900
N1934       N  0.64014288  0.53164463  0.90783273    -0.88800
H1935       H  0.71208170  0.94081628  0.90815485     0.35300
H1936       H  0.70644835  0.94060329  0.85450677     0.40400
H1937       H  0.61992678  0.52479624  0.90336663     0.40000
H1938       H  0.64301454  0.54663030  0.88554877     0.34900
C1939       C  0.67278109  0.51011071  0.66724170    -0.26900
C1940       C  0.69378175  0.99795806  0.66573357    -0.14900
C1941       C  0.69861621  0.98145249  0.62774945     0.35700
C1942       C  0.67989427  0.98200341  0.59280832    -0.26300
C1943       C  0.65651289  0.99911920  0.59417827    -0.15600
C1944       C  0.65342871  0.51088804  0.63293245     0.36800
N1945       N  0.62838611  0.52600713  0.63974933    -0.89800
H1946       H  0.66958268  0.52260010  0.69690457     0.17900
H1947       H  0.68389569  0.96921190  0.56375243     0.17900
N1948       N  0.72287906  0.96467211  0.62435105    -0.88800
H1949       H  0.62816417  0.53595108  0.67066702     0.35300
H1950       H  0.61220343  0.51201901  0.63881782     0.40400
H1951       H  0.73995208  0.97758943  0.62513374     0.40000
H1952       H  0.72331267  0.95363715  0.59434054     0.34900
loop_ 
_geom_bond_atom_site_label_1 
_geom_bond_atom_site_label_2 
_geom_bond_distance 
_geom_bond_site_symmetry_2 
_ccdc_geom_bond_type 
C1            C2   1.547   1_565  S
C1            C7   1.541       .  S
C1          C493   1.535       .  S
C1          C723   1.543       .  S
C2            H9   1.081       .  S
C2          C247   1.364       .  D
C3          C492   1.543   1_545  S
C3          C246   1.364       .  D
C3          C204   1.482       .  S
C4            C6   1.542       .  S
C4          C491   1.541       .  S
C4          C496   1.539       .  S
C4           H10   1.110       .  S
C5          C489   1.535       .  S
C5           H11   1.086       .  S
C5          C250   1.368       .  D
C6          C249   1.370       .  D
C6          C190   1.494       .  S
C7          H256   1.086       .  S
C7          C252   1.364   1_554  D
C8          C492   1.543       .  S
C8          C251   1.365       .  D
C8          C706   1.487       .  S
H12         C251   1.086       .  S
O13          V21   1.913       .  S
O13          C23   1.268       .  A
O14          V21   1.908       .  S
O14          C24   1.267       .  A
O15          V21   1.892       .  S
O15          C25   1.263       .  A
O16          V21   1.892       .  S
O16          C26   1.262       .  A
O17          V22   1.905       .  S
O17         C514   1.266   1_545  A
O18          V22   1.904       .  S
O18         C513   1.266   1_545  A
O19          V22   1.901       .  S
O19         C512   1.265   1_545  A
O20          V22   1.900       .  S
O20         C511   1.265   1_545  A
V21         V510   2.085       .  T
V22         V509   2.086   1_545  T
C23         O508   1.265       .  A
C23         C221   1.494       .  S
C24         O507   1.264       .  A
C24         C179   1.486       .  S
C25         O506   1.266       .  A
C25         C162   1.484       .  S
C26         O505   1.266       .  A
C26         C232   1.476       .  S
C27          C28   1.536       .  S
C27          C33   1.533       .  S
C27         C519   1.553       .  S
C27         C176   1.539       .  S
C28          H35   1.087       .  S
C28         C273   1.364       .  D
C29          C30   1.535       .  S
C29         C272   1.364       .  D
C29         C134   1.478       .  S
C30          C34   1.535       .  S
C30         C520   1.538       .  S
C30          H36   1.110       .  S
C31         C515   1.549       .  S
C31          H37   1.081       .  S
C31         C276   1.371       .  D
C32         C518   1.540   1_545  S
C32         C275   1.368       .  D
C32         C148   1.486       .  S
C33         H282   1.087       .  S
C33         C278   1.359   1_554  D
C34         C277   1.361       .  D
C34         C165   1.475       .  S
H38         C277   1.087       .  S
C39          C45   1.540       .  S
C39          C43   1.544       .  S
C39        C1016   1.539       .  S
C39         C109   1.538       .  S
C40        C1015   1.536       .  S
C40          H47   1.084       .  S
C40         C285   1.371       .  D
C41        C1018   1.542   1_556  S
C41         C284   1.372       .  D
C41         C207   1.497       .  S
C42          C46   1.539       .  S
C42          C44   1.538   1_554  S
C42        C1017   1.543   1_554  S
C42          H48   1.110       .  S
C43          H49   1.079       .  S
C43         C288   1.362       .  D
C44         C287   1.363       .  D
C44         C151   1.477       .  S
C45         H294   1.087       .  S
C45         C290   1.360       .  D
C46         C289   1.364   1_554  D
C46         C123   1.486       .  S
H50         C289   1.086       .  S
O51          V59   1.906       .  S
O51          C61   1.267       .  A
O52          V59   1.905       .  S
O52          C62   1.265       .  A
O53          V59   1.899       .  S
O53          C63   1.265       .  A
O54          V59   1.899       .  S
O54          C64   1.264       .  A
O55          V60   1.898       .  S
O55        C1040   1.264       .  A
O56          V60   1.898       .  S
O56        C1039   1.264       .  A
O57          V60   1.902       .  S
O57        C1038   1.266       .  A
O58          V60   1.906       .  S
O58        C1037   1.265       .  A
V59        V1036   2.085       .  T
V60        V1035   2.085   1_455  T
C61        O1034   1.264       .  A
C61          C78   1.492       .  S
C62        O1033   1.265       .  A
C62         C120   1.485       .  S
C63        O1032   1.263       .  A
C63         C106   1.478       .  S
C64        O1031   1.263       .  A
C64          C92   1.480       .  S
C65          C66   1.539   1_655  S
C65         C315   1.529   1_554  S
C65        C1045   1.540       .  S
C65          C95   1.536       .  S
C66          H73   1.086       .  S
C66         C311   1.370   1_554  D
C67          C68   1.547       .  S
C67         C310   1.372       .  D
C67         C193   1.497       .  S
C68          C72   1.543       .  S
C68        C1046   1.541   1_455  S
C68          H74   1.109       .  S
C69        C1041   1.538       .  S
C69          H75   1.082       .  S
C69         C314   1.363   1_554  D
C70        C1044   1.540       .  S
C70         C313   1.365       .  D
C70         C137   1.479       .  S
C71         C309   1.528       .  S
C71          H76   1.087       .  S
C71          C72   1.363   1_655  D
C72          C81   1.484   1_455  S
C77          C78   1.407       .  A
C77          C82   1.403       .  A
C77          H84   1.084       .  S
C78        C1055   1.423       .  A
C79          C80   1.407       .  A
C79        C1054   1.423       .  A
C79          N86   1.432       .  S
C80          C81   1.402   1_455  A
C80          H85   1.084       .  S
C81        C1058   1.406       .  A
C82        C1057   1.406       .  A
C82          N83   1.433       .  S
N83          H87   1.045       .  S
N83         H332   1.046       .  S
N86          H89   1.046       .  S
N86          H90   1.044       .  S
H88         N327   1.046       .  S
C91          C96   1.403       .  A
C91        C1068   1.402       .  A
C91          H98   1.084       .  S
C92          C93   1.412       .  A
C92        C1067   1.403       .  A
C93          C94   1.398       .  A
C93         N100   1.433       .  S
C94        C1071   1.413       .  A
C94          H99   1.076       .  S
C95          C96   1.417   1_655  A
C95        C1070   1.412       .  A
C96          N97   1.433       .  S
N97         H101   1.046       .  S
N97         H102   1.045       .  S
N100        H103   1.046       .  S
N100        H104   1.044       .  S
C105        C106   1.400       .  A
C105        C110   1.404       .  A
C105        H112   1.084       .  S
C106       C1083   1.412       .  A
C107        C108   1.395       .  A
C107       C1082   1.408       .  A
C107        N114   1.433       .  S
C108       C1085   1.413       .  A
C108        H113   1.081       .  S
C109        C110   1.420       .  A
C109       C1084   1.412       .  A
C110        N111   1.430       .  S
N111        H115   1.046       .  S
N111        H116   1.046       .  S
N114        H117   1.046       .  S
N114        H118   1.045       .  S
C119        C124   1.404       .  A
C119       C1096   1.405       .  A
C119        H126   1.083       .  S
C120        C121   1.414       .  A
C120       C1095   1.404       .  A
C121        C122   1.410       .  A
C121        N128   1.437       .  S
C122        C123   1.402       .  A
C122        H127   1.082       .  S
C123       C1100   1.411       .  A
C124       C1099   1.408       .  A
C124        N125   1.438       .  S
N125        H129   1.045       .  S
N125        H130   1.046       .  S
N128        H131   1.046       .  S
N128        H132   1.046       .  S
C133        C134   1.403       .  A
C133        C138   1.403       .  A
C133        H140   1.084       .  S
C134        C379   1.411       .  A
C135        C136   1.396       .  A
C135        C378   1.407       .  A
C135        N142   1.433       .  S
C136        C381   1.403   1_554  A
C136        H141   1.084       .  S
C137        C138   1.411       .  A
C137        C380   1.402       .  A
C138        N139   1.432       .  S
N139        H143   1.045       .  S
N139        H144   1.044       .  S
N142        H145   1.046       .  S
N142        H146   1.046       .  S
C147        C152   1.402       .  A
C147        C392   1.407       .  A
C147        H154   1.084       .  S
C148        C149   1.409       .  A
C148        C391   1.407       .  A
C149        C150   1.399       .  A
C149        N156   1.432       .  S
C150        C395   1.399       .  A
C150        H155   1.082       .  S
C151        C152   1.410   1_556  A
C151        C394   1.399       .  A
C152        N153   1.432       .  S
N153        H401   1.045   1_554  S
N153        H402   1.044       .  S
N156        H891   1.046       .  S
N156        H404   1.045       .  S
H157        N397   1.045       .  S
H158        N397   1.043       .  S
H159        N888   1.046   1_554  S
H160        N400   1.045       .  S
C161        C162   1.406       .  A
C161        C166   1.399       .  A
C161        H168   1.084       .  S
C162        C163   1.416       .  A
C163        C164   1.410       .  A
C163        N170   1.437       .  S
C164        C165   1.401       .  A
C164        H169   1.084       .  S
C165        C166   1.403       .  A
C166        N167   1.433       .  S
N167        H171   1.046       .  S
N167        H172   1.046       .  S
N170        H661   1.046       .  S
N170        H662   1.046       .  S
H173        N658   1.046       .  S
H174        N658   1.046       .  S
C175        C180   1.407       .  A
C175        C664   1.412   1_545  A
C175        H182   1.076       .  S
C176        C177   1.421       .  A
C176        C663   1.410       .  A
C177        C178   1.403       .  A
C177        N184   1.434       .  S
C178        C179   1.399       .  A
C178        H183   1.084       .  S
C179        C668   1.411       .  A
C180        C667   1.410   1_545  A
C180        N181   1.433       .  S
N181        H185   1.046       .  S
N181        H186   1.046       .  S
N184        H187   1.046       .  S
N184        H188   1.046       .  S
C189        C190   1.403       .  A
C189        C194   1.405       .  A
C189        H196   1.082       .  S
C190        C435   1.413       .  A
C191        C192   1.407   1_554  A
C191        C434   1.411   1_554  A
C191        N198   1.437       .  S
C192        C437   1.406       .  A
C192        H197   1.084   1_556  S
C193        C194   1.413       .  A
C193        C436   1.407       .  A
C194        N195   1.431       .  S
N195        H199   1.045       .  S
N195        H200   1.046       .  S
N198        H201   1.045   1_554  S
N198        H446   1.046       .  S
H202        N442   1.046       .  S
C203        C204   1.401       .  A
C203        C208   1.409       .  A
C203        H210   1.083       .  S
C204        C449   1.415       .  A
C205        C206   1.403       .  A
C205        C448   1.417       .  A
C205        N212   1.439       .  S
C206        C207   1.406   1_554  A
C206        H211   1.082       .  S
C207        C452   1.416       .  A
C208        C451   1.420       .  A
C208        N209   1.438       .  S
N209        H213   1.045       .  S
N209        H214   1.046       .  S
N212        H216   1.045       .  S
N212        H703   1.043   1_545  S
H215        N700   1.043       .  S
C217        C218   1.401       .  A
C217        C222   1.410       .  A
C217        H224   1.084       .  S
C218        C496   1.482       .  S
C218        C707   1.405       .  A
C219        C220   1.409       .  A
C219        C706   1.409   1_545  A
C219        N226   1.436       .  S
C220        C709   1.406   1_545  A
C220        H225   1.084       .  S
C221        C222   1.416       .  A
C221        C708   1.409       .  A
C222        N223   1.432       .  S
N223        H227   1.046       .  S
N223        H228   1.046       .  S
N226        H229   1.044       .  S
N226        H230   1.046       .  S
C231        C236   1.410       .  A
C231        C720   1.400   1_545  A
C231        H238   1.084       .  S
C232        C233   1.408       .  A
C232        C719   1.399       .  A
C233        C234   1.402       .  A
C233        N240   1.439       .  S
C234        C235   1.411       .  A
C234        H239   1.083       .  S
C235        C489   1.539       .  S
C235        C724   1.423       .  A
C236        C723   1.422   1_545  A
C236        N237   1.436       .  S
N237        H241   1.046       .  S
N237        H242   1.046       .  S
N240        H243   1.045       .  S
N240        H244   1.046       .  S
C245        C246   1.543   1_565  S
C245        C251   1.541       .  S
C245        C737   1.533       .  S
C245        C967   1.539       .  S
C246        H253   1.083       .  S
C247        C736   1.540   1_544  S
C247        C448   1.484       .  S
C248        C735   1.537   1_556  S
C248        C740   1.537       .  S
C248        C250   1.540   1_556  S
C248        H254   1.111       .  S
C249        C733   1.537       .  S
C249        H255   1.086       .  S
C250        C434   1.487   1_554  S
C252        C736   1.540       .  S
C252        C950   1.483       .  S
O257        V265   1.907       .  S
O257        C267   1.266       .  A
O258        V265   1.903       .  S
O258        C268   1.266       .  A
O259        V265   1.901       .  S
O259        C269   1.266       .  A
O260        V265   1.894       .  S
O260        C270   1.263       .  A
O261        V266   1.904       .  S
O261        C758   1.265   1_545  A
O262        V266   1.909       .  S
O262        C757   1.267   1_545  A
O263        V266   1.904       .  S
O263        C756   1.266   1_545  A
O264        V266   1.902       .  S
O264        C755   1.266   1_545  A
V265        V754   2.085       .  T
V266        V753   2.085   1_545  T
C267        O752   1.264       .  A
C267        C465   1.486       .  S
C268        O751   1.264       .  A
C268        C423   1.483       .  S
C269        O750   1.266       .  A
C269        C406   1.491       .  S
C270        O749   1.265       .  A
C270        C476   1.476       .  S
C271        C272   1.535       .  S
C271        C277   1.532       .  S
C271        C763   1.551       .  S
C271        C420   1.536       .  S
C272        H279   1.086       .  S
C273        C274   1.535   1_554  S
C273        C378   1.479       .  S
C274        C278   1.535       .  S
C274        C764   1.543   1_556  S
C274        H280   1.110       .  S
C275        C759   1.547       .  S
C275        H281   1.081       .  S
C276        C762   1.542   1_544  S
C276        C392   1.489       .  S
C278        C409   1.477       .  S
C283       C1260   1.535       .  S
C283        C289   1.541       .  S
C283        C287   1.545       .  S
C283        C353   1.537       .  S
C284       C1259   1.538       .  S
C284        H291   1.085       .  S
C285       C1262   1.547       .  S
C285        C451   1.501       .  S
C286       C1261   1.542       .  S
C286        C290   1.534       .  S
C286        C288   1.535       .  S
C286        H292   1.110       .  S
C287        H293   1.079       .  S
C288        C395   1.475       .  S
C290        C367   1.477       .  S
O295        V303   1.902       .  S
O295        C305   1.266       .  A
O296        V303   1.899       .  S
O296        C306   1.264       .  A
O297        V303   1.895       .  S
O297        C307   1.264       .  A
O298        V303   1.896       .  S
O298        C308   1.263       .  A
O299        V304   1.897       .  S
O299       C1284   1.265   1_455  A
O300        V304   1.901       .  S
O300       C1283   1.264       .  A
O301        V304   1.902       .  S
O301       C1282   1.266       .  A
O302        V304   1.902       .  S
O302       C1281   1.264   1_455  A
V303       V1280   2.084       .  T
V304       V1279   2.084   1_455  T
C305       O1278   1.266       .  A
C305        C322   1.493       .  S
C306       O1277   1.267       .  A
C306        C364   1.488       .  S
C307       O1276   1.264       .  A
C307        C350   1.477       .  S
C308       O1275   1.264       .  A
C308        C336   1.480       .  S
C309        C310   1.541   1_655  S
C309       C1289   1.540       .  S
C309        C339   1.539       .  S
C310        H317   1.086       .  S
C311        C312   1.544   1_455  S
C311        C437   1.493       .  S
C312        C316   1.543       .  S
C312       C1290   1.539       .  S
C312        H318   1.109       .  S
C313       C1285   1.539       .  S
C313        H319   1.082       .  S
C314       C1288   1.541       .  S
C314        C381   1.480       .  S
C315        H320   1.087       .  S
C315        C316   1.363       .  D
C316        C325   1.481       .  S
C321        C322   1.407       .  A
C321        C326   1.402       .  A
C321        H328   1.084       .  S
C322       C1299   1.422       .  A
C323       C1298   1.422   1_455  A
C323        C324   1.404       .  A
C323        N330   1.432       .  S
C324        C325   1.399   1_455  A
C324        H329   1.084       .  S
C325       C1302   1.406       .  A
C326       C1301   1.406       .  A
C326        N327   1.433       .  S
N327        H331   1.045       .  S
N330        H333   1.046       .  S
N330        H334   1.044       .  S
C335       C1312   1.403   1_455  A
C335        C340   1.402       .  A
C335        H342   1.084       .  S
C336       C1311   1.402       .  A
C336        C337   1.414       .  A
C337        C338   1.398       .  A
C337        N344   1.433       .  S
C338       C1315   1.411       .  A
C338        H343   1.076       .  S
C339       C1314   1.414       .  A
C339        C340   1.415   1_655  A
C340        N341   1.433       .  S
N341        H345   1.046       .  S
N341        H346   1.046       .  S
N344        H347   1.045       .  S
N344        H348   1.045       .  S
C349        C350   1.401       .  A
C349        C354   1.403       .  A
C349        H356   1.084       .  S
C350       C1327   1.411       .  A
C351       C1326   1.412       .  A
C351        C352   1.399       .  A
C351        N358   1.433       .  S
C352       C1329   1.413       .  A
C352        H357   1.083       .  S
C353       C1328   1.412       .  A
C353        C354   1.419       .  A
C354        N355   1.430       .  S
N355        H359   1.046       .  S
N355        H360   1.046       .  S
N358        H361   1.046       .  S
N358        H362   1.045       .  S
C363       C1340   1.404       .  A
C363        C368   1.404       .  A
C363        H370   1.084       .  S
C364       C1339   1.406       .  A
C364        C365   1.418       .  A
C365        C366   1.408       .  A
C365        N372   1.438       .  S
C366        C367   1.399       .  A
C366        H371   1.084       .  S
C367       C1344   1.407       .  A
C368       C1343   1.410       .  A
C368        N369   1.438       .  S
N369        H373   1.046       .  S
N369        H374   1.046       .  S
N372        H375   1.046       .  S
N372        H376   1.046       .  S
C377        C378   1.404   1_556  A
C377        C382   1.405       .  A
C377        H384   1.084       .  S
C379        C380   1.398       .  A
C379        N386   1.439       .  S
C380        H385   1.084       .  S
C381        C382   1.411       .  A
C382        N383   1.432       .  S
N383        H387   1.046       .  S
N383        H388   1.045       .  S
N386        H389   1.045       .  S
N386        H390   1.046       .  S
C391        C396   1.403       .  A
C391        H398   1.084       .  S
C392        C393   1.412   1_554  A
C393        C394   1.401       .  A
C393        N400   1.432       .  S
C394        H399   1.082       .  S
C395        C396   1.415       .  A
C396        N397   1.438       .  S
N400        H647   1.046   1_556  S
H403        N644   1.046       .  S
C405        C406   1.408       .  A
C405        C410   1.403       .  A
C405        H412   1.083       .  S
C406        C407   1.416       .  A
C407        C408   1.407       .  A
C407        N414   1.432       .  S
C408        C409   1.400       .  A
C408        H413   1.084       .  S
C409        C410   1.404       .  A
C410        N411   1.433       .  S
N411        H415   1.045       .  S
N411        H416   1.045       .  S
N414        H905   1.046       .  S
N414        H906   1.046       .  S
H417        N902   1.046       .  S
H418        N902   1.046       .  S
C419        C908   1.413       .  A
C419        C424   1.410       .  A
C419        H426   1.075       .  S
C420        C907   1.410       .  A
C420        C421   1.420       .  A
C421        C422   1.403       .  A
C421        N428   1.434       .  S
C422        C423   1.401       .  A
C422        H427   1.084       .  S
C423        C912   1.409       .  A
C424        C911   1.412   1_545  A
C424        N425   1.438       .  S
N425        H429   1.046       .  S
N425        H430   1.046       .  S
N428        H431   1.046       .  S
N428        H432   1.046       .  S
C433        C434   1.402       .  A
C433        C438   1.405       .  A
C433        H440   1.083       .  S
C435        C436   1.408       .  A
C435        N442   1.438       .  S
C436        H441   1.083       .  S
C437        C438   1.413       .  A
C438        N439   1.431       .  S
N439        H443   1.045       .  S
N439        H444   1.046       .  S
N442        H445   1.045       .  S
C447        C448   1.400   1_556  A
C447        C452   1.407       .  A
C447        H454   1.081       .  S
C449        C450   1.400       .  A
C449        N456   1.439       .  S
C450        C451   1.406       .  A
C450        H455   1.080       .  S
C452        N453   1.437       .  S
N453        H457   1.046       .  S
N453        H458   1.045       .  S
N456        H947   1.042       .  S
N456        H460   1.045       .  S
H459        N944   1.043       .  S
C461        C462   1.401       .  A
C461        C466   1.408       .  A
C461        H468   1.084       .  S
C462        C740   1.479       .  S
C462        C951   1.407       .  A
C463        C950   1.407   1_545  A
C463        C464   1.407       .  A
C463        N470   1.435       .  S
C464        C953   1.407   1_545  A
C464        H469   1.083       .  S
C465        C952   1.405       .  A
C465        C466   1.414       .  A
C466        N467   1.432       .  S
N467        H471   1.046       .  S
N467        H472   1.046       .  S
N470        H473   1.045       .  S
N470        H474   1.045       .  S
C475        C964   1.400   1_545  A
C475        C480   1.410       .  A
C475        H482   1.084       .  S
C476        C963   1.399       .  A
C476        C477   1.407       .  A
C477        C478   1.402       .  A
C477        N484   1.439       .  S
C478        C479   1.411       .  A
C478        H483   1.083       .  S
C479        C733   1.541       .  S
C479        C968   1.425       .  A
C480        C967   1.422   1_545  A
C480        N481   1.436       .  S
N481        H485   1.046       .  S
N481        H486   1.045       .  S
N484        H487   1.046       .  S
N484        H488   1.046       .  S
C489        C490   1.545       .  S
C489        C495   1.539       .  S
C490        H497   1.081       .  S
C490        C735   1.365       .  D
C491        C734   1.364       .  D
C491        C692   1.480       .  S
C492        C494   1.541       .  S
C492        H498   1.110       .  S
C493        H499   1.086       .  S
C493        C738   1.368       .  D
C494        C737   1.367       .  D
C494        C678   1.490       .  S
C495        H744   1.087       .  S
C495        C740   1.362   1_554  D
C496        C739   1.362       .  D
H500        C739   1.086       .  S
O501        V509   1.907       .  S
O501        C511   1.266       .  A
O502        V509   1.903       .  S
O502        C512   1.266       .  A
O503        V509   1.900       .  S
O503        C513   1.265       .  A
O504        V509   1.901       .  S
O504        C514   1.264       .  A
O505        V510   1.909       .  S
O506        V510   1.907       .  S
O507        V510   1.900       .  S
O508        V510   1.899       .  S
C511        C709   1.486       .  S
C512        C667   1.485       .  S
C513        C650   1.487       .  S
C514        C720   1.481       .  S
C515        C516   1.536   1_545  S
C515        C521   1.532   1_545  S
C515        C664   1.538   1_545  S
C516        H523   1.086       .  S
C516        C761   1.366       .  D
C517        C518   1.538       .  S
C517        C760   1.369       .  D
C517        C622   1.487       .  S
C518        C522   1.535       .  S
C518        H524   1.110       .  S
C519        H525   1.082       .  S
C519        C764   1.376       .  D
C520        C763   1.371       .  D
C520        C636   1.489       .  S
C521        H770   1.087       .  S
C521        C766   1.360   1_554  D
C522        C765   1.361       .  D
C522        C653   1.475       .  S
H526        C765   1.087       .  S
C527       C1504   1.538       .  S
C527        C533   1.541       .  S
C527        C531   1.541       .  S
C527        C597   1.537       .  S
C528       C1503   1.537       .  S
C528        H535   1.085       .  S
C528        C773   1.371       .  D
C529       C1506   1.544   1_556  S
C529        C772   1.372       .  D
C529        C695   1.500       .  S
C530       C1505   1.543   1_554  S
C530        C534   1.532       .  S
C530        C532   1.535   1_554  S
C530        H536   1.110       .  S
C531        H537   1.085       .  S
C531        C776   1.365       .  D
C532        C775   1.364       .  D
C532        C639   1.479       .  S
C533        H782   1.084       .  S
C533        C778   1.358       .  D
C534        C777   1.361   1_554  D
C534        C611   1.477       .  S
H538        C777   1.086       .  S
O539        V547   1.906       .  S
O539        C549   1.267       .  A
O540        V547   1.902       .  S
O540        C550   1.265       .  A
O541        V547   1.899       .  S
O541        C551   1.262       .  A
O542        V547   1.898       .  S
O542        C552   1.264       .  A
O543        V548   1.895       .  S
O543       C1528   1.263   1_455  A
O544        V548   1.896       .  S
O544       C1527   1.263       .  A
O545        V548   1.902       .  S
O545       C1526   1.265       .  A
O546        V548   1.903       .  S
O546       C1525   1.264   1_455  A
V547       V1524   2.084       .  T
V548       V1523   2.086   1_455  T
C549       O1522   1.264       .  A
C549        C566   1.491       .  S
C550       O1521   1.265       .  A
C550        C608   1.484       .  S
C551       O1520   1.264       .  A
C551        C594   1.472       .  S
C552       O1519   1.265       .  A
C552        C580   1.490       .  S
C553        C554   1.535   1_655  S
C553        C803   1.529   1_554  S
C553       C1533   1.542       .  S
C553        C583   1.532       .  S
C554        H561   1.086       .  S
C554        C799   1.367   1_554  D
C555        C556   1.546   1_455  S
C555        C798   1.370       .  D
C555        C681   1.497       .  S
C556        C560   1.547       .  S
C556       C1534   1.541       .  S
C556        H562   1.109       .  S
C557       C1529   1.541       .  S
C557        H563   1.084       .  S
C557        C802   1.367   1_554  D
C558       C1532   1.544       .  S
C558        C801   1.366       .  D
C558        C625   1.490       .  S
C559        C797   1.529       .  S
C559        H564   1.087       .  S
C559        C560   1.363       .  D
C560        C569   1.486       .  S
C565        C566   1.405       .  A
C565        C570   1.406       .  A
C565        H572   1.084       .  S
C566       C1543   1.421       .  A
C567       C1542   1.421   1_455  A
C567        C568   1.405       .  A
C567        N574   1.432       .  S
C568        C569   1.401   1_455  A
C568        H573   1.084       .  S
C569       C1546   1.412       .  A
C570       C1545   1.413       .  A
C570        N571   1.438       .  S
N571        H575   1.046       .  S
N571        H820   1.044       .  S
N574        H577   1.046       .  S
N574        H578   1.044       .  S
H576        N815   1.043       .  S
C579       C1556   1.401   1_455  A
C579        C584   1.400       .  A
C579        H586   1.084       .  S
C580       C1555   1.405       .  A
C580        C581   1.417       .  A
C581        C582   1.398       .  A
C581        N588   1.433       .  S
C582       C1559   1.410       .  A
C582        H587   1.079       .  S
C583       C1558   1.411       .  A
C583        C584   1.417   1_655  A
C584        N585   1.433       .  S
N585        H589   1.046       .  S
N585        H590   1.046       .  S
N588        H591   1.045       .  S
N588        H592   1.045       .  S
C593        C594   1.402       .  A
C593        C598   1.408       .  A
C593        H600   1.084       .  S
C594       C1571   1.407       .  A
C595       C1570   1.409       .  A
C595        C596   1.394       .  A
C595        N602   1.433       .  S
C596       C1573   1.412       .  A
C596        H601   1.083       .  S
C597       C1572   1.413       .  A
C597        C598   1.418       .  A
C598        N599   1.432       .  S
N599        H603   1.046       .  S
N599        H604   1.045       .  S
N602        H605   1.046       .  S
N602        H606   1.044       .  S
C607       C1584   1.404       .  A
C607        C612   1.402       .  A
C607        H614   1.084       .  S
C608       C1583   1.406       .  A
C608        C609   1.413       .  A
C609        C610   1.405       .  A
C609        N616   1.432       .  S
C610        C611   1.400       .  A
C610        H615   1.083       .  S
C611       C1588   1.406       .  A
C612       C1587   1.409       .  A
C612        N613   1.433       .  S
N613        H617   1.045       .  S
N613        H618   1.046       .  S
N616        H619   1.045       .  S
N616        H620   1.046       .  S
C621        C622   1.406       .  A
C621        C626   1.407       .  A
C621        H628   1.084       .  S
C622        C867   1.411       .  A
C623        C866   1.411       .  A
C623        C624   1.401       .  A
C623        N630   1.439       .  S
C624        C869   1.403   1_554  A
C624        H629   1.084       .  S
C625        C868   1.405       .  A
C625        C626   1.413       .  A
C626        N627   1.431       .  S
N627        H631   1.043       .  S
N627        H632   1.045       .  S
N630        H633   1.045       .  S
N630        H634   1.046       .  S
C635        C880   1.407       .  A
C635        C640   1.406       .  A
C635        H642   1.083       .  S
C636        C879   1.407       .  A
C636        C637   1.413       .  A
C637        C638   1.400       .  A
C637        N644   1.431       .  S
C638        C883   1.398       .  A
C638        H643   1.083       .  S
C639        C882   1.398       .  A
C639        C640   1.416   1_556  A
C640        N641   1.438       .  S
N641        H889   1.045       .  S
N641        H890   1.043       .  S
N644        H892   1.045       .  S
H645        N885   1.045       .  S
H646        N885   1.044       .  S
H648        N888   1.046       .  S
C649        C650   1.407       .  A
C649        C654   1.402       .  A
C649        H656   1.084       .  S
C650        C651   1.417   1_565  A
C651        C652   1.409       .  A
C651        N658   1.437       .  S
C652        C653   1.400   1_545  A
C652        H657   1.084       .  S
C653        C654   1.403       .  A
C654        N655   1.432       .  S
N655        H659   1.046       .  S
N655        H660   1.045       .  S
C663        C668   1.409       .  A
C663        H670   1.078       .  S
C664        C665   1.419       .  A
C665        C666   1.402       .  A
C665        N672   1.433       .  S
C666        C667   1.401       .  A
C666        H671   1.084       .  S
C668        N669   1.433       .  S
N669        H673   1.046       .  S
N669        H674   1.046       .  S
N672        H675   1.046       .  S
N672        H676   1.046       .  S
C677        C678   1.401       .  A
C677        C682   1.407       .  A
C677        H684   1.082       .  S
C678        C923   1.410       .  A
C679        C922   1.411   1_554  A
C679        C680   1.406   1_554  A
C679        N686   1.438       .  S
C680        C925   1.406       .  A
C680        H685   1.084   1_556  S
C681        C924   1.406       .  A
C681        C682   1.415       .  A
C682        N683   1.431       .  S
N683        H687   1.045       .  S
N683        H688   1.046       .  S
N686        H689   1.046   1_554  S
N686        H934   1.046       .  S
H690        N930   1.045       .  S
C691        C692   1.400       .  A
C691        C696   1.408       .  A
C691        H698   1.083       .  S
C692        C937   1.415       .  A
C693        C936   1.413       .  A
C693        C694   1.400       .  A
C693        N700   1.439       .  S
C694        C695   1.408   1_554  A
C694        H699   1.080       .  S
C695        C940   1.417       .  A
C696        C939   1.416       .  A
C696        N697   1.437       .  S
N697        H701   1.045       .  S
N697        H702   1.046       .  S
N700        H704   1.046       .  S
C705        C706   1.405       .  A
C705        C710   1.404       .  A
C705        H712   1.084       .  S
C707        C708   1.403       .  A
C707        N714   1.432       .  S
C708        H713   1.083       .  S
C709        C710   1.410       .  A
C710        N711   1.432       .  S
N711        H715   1.046       .  S
N711        H716   1.046       .  S
N714        H717   1.046       .  S
N714        H718   1.045       .  S
C719        C724   1.410       .  A
C719        H726   1.084       .  S
C720        C721   1.409       .  A
C721        C722   1.406       .  A
C721        N728   1.438       .  S
C722        C723   1.412       .  A
C722        H727   1.083       .  S
C724        N725   1.435       .  S
N725        H729   1.046       .  S
N725        H730   1.045       .  S
N728        H731   1.045       .  S
N728        H732   1.046       .  S
C733        C734   1.543       .  S
C733        C739   1.542       .  S
C734        H741   1.082       .  S
C735        C936   1.477       .  S
C736        C738   1.539   1_556  S
C736        H742   1.110       .  S
C737        H743   1.086       .  S
C738        C922   1.485   1_554  S
O745        V753   1.901       .  S
O745        C755   1.264       .  A
O746        V753   1.898       .  S
O746        C756   1.265       .  A
O747        V753   1.898       .  S
O747        C757   1.265       .  A
O748        V753   1.897       .  S
O748        C758   1.264       .  A
O749        V754   1.906       .  S
O750        V754   1.906       .  S
O751        V754   1.897       .  S
O752        V754   1.897       .  S
C755        C953   1.488       .  S
C756        C911   1.486       .  S
C757        C894   1.491       .  S
C758        C964   1.477       .  S
C759        C760   1.540   1_545  S
C759        C765   1.533   1_545  S
C759        C908   1.539       .  S
C760        H767   1.086       .  S
C761        C762   1.540   1_554  S
C761        C866   1.485       .  S
C762        C766   1.539       .  S
C762        H768   1.110       .  S
C763        H769   1.081       .  S
C764        C880   1.495       .  S
C766        C897   1.478       .  S
C771       C1748   1.537       .  S
C771        C777   1.542       .  S
C771        C775   1.546       .  S
C771        C841   1.538       .  S
C772       C1747   1.539   1_455  S
C772        H779   1.084       .  S
C773       C1750   1.544       .  S
C773        C939   1.497       .  S
C774       C1749   1.543       .  S
C774        C778   1.531       .  S
C774        C776   1.539       .  S
C774        H780   1.110       .  S
C775        H781   1.082       .  S
C776        C883   1.476       .  S
C778        C855   1.478       .  S
O783        V791   1.900       .  S
O783        C793   1.266       .  A
O784        V791   1.899       .  S
O784        C794   1.264       .  A
O785        V791   1.899       .  S
O785        C795   1.264       .  A
O786        V791   1.902       .  S
O786        C796   1.265       .  A
O787        V792   1.894       .  S
O787       C1772   1.263   1_455  A
O788        V792   1.897       .  S
O788       C1771   1.263       .  A
O789        V792   1.902       .  S
O789       C1770   1.266       .  A
O790        V792   1.905       .  S
O790       C1769   1.265   1_455  A
V791       V1768   2.085       .  T
V792       V1767   2.085   1_455  T
C793       O1766   1.264       .  A
C793        C810   1.488       .  S
C794       O1765   1.265       .  A
C794        C852   1.480       .  S
C795       O1764   1.264       .  A
C795        C838   1.478       .  S
C796       O1763   1.264       .  A
C796        C824   1.484       .  S
C797        C798   1.539   1_655  S
C797       C1777   1.540       .  S
C797        C827   1.538       .  S
C798        H805   1.086       .  S
C799        C800   1.543   1_455  S
C799        C925   1.488       .  S
C800        C804   1.543       .  S
C800       C1778   1.541       .  S
C800        H806   1.110       .  S
C801       C1773   1.541       .  S
C801        H807   1.080       .  S
C802       C1776   1.544       .  S
C802        C869   1.488       .  S
C803        H808   1.087       .  S
C803        C804   1.362       .  D
C804        C813   1.481       .  S
C809        C810   1.404       .  A
C809        C814   1.403       .  A
C809        H816   1.084       .  S
C810       C1787   1.420       .  A
C811       C1786   1.421   1_455  A
C811        C812   1.403       .  A
C811        N818   1.432       .  S
C812        C813   1.400   1_455  A
C812        H817   1.084       .  S
C813       C1790   1.410       .  A
C814       C1789   1.412       .  A
C814        N815   1.438       .  S
N815        H819   1.046       .  S
N818        H821   1.045       .  S
N818        H822   1.045       .  S
C823       C1800   1.402   1_455  A
C823        C828   1.402       .  A
C823        H830   1.084       .  S
C824       C1799   1.403       .  A
C824        C825   1.413       .  A
C825        C826   1.400       .  A
C825        N832   1.433       .  S
C826       C1803   1.414       .  A
C826        H831   1.075       .  S
C827       C1802   1.415       .  A
C827        C828   1.417   1_655  A
C828        N829   1.433       .  S
N829        H833   1.046       .  S
N829        H834   1.045       .  S
N832        H835   1.046       .  S
N832        H836   1.045       .  S
C837        C838   1.401       .  A
C837        C842   1.406       .  A
C837        H844   1.084       .  S
C838       C1815   1.411       .  A
C839       C1814   1.414       .  A
C839        C840   1.398       .  A
C839        N846   1.432       .  S
C840       C1817   1.411   1_455  A
C840        H845   1.084       .  S
C841       C1816   1.412       .  A
C841        C842   1.419       .  A
C842        N843   1.431       .  S
N843        H847   1.046       .  S
N843        H848   1.046       .  S
N846        H849   1.045       .  S
N846        H850   1.045       .  S
C851       C1828   1.403       .  A
C851        C856   1.400       .  A
C851        H858   1.084       .  S
C852       C1827   1.403       .  A
C852        C853   1.416       .  A
C853        C854   1.409       .  A
C853        N860   1.437       .  S
C854        C855   1.400       .  A
C854        H859   1.083       .  S
C855       C1832   1.407       .  A
C856       C1831   1.409       .  A
C856        N857   1.433       .  S
N857        H861   1.045       .  S
N857        H862   1.046       .  S
N860        H863   1.046       .  S
N860        H864   1.046       .  S
C865        C866   1.405   1_556  A
C865        C870   1.407       .  A
C865        H872   1.084       .  S
C867        C868   1.401       .  A
C867        N874   1.438       .  S
C868        H873   1.084       .  S
C869        C870   1.413       .  A
C870        N871   1.431       .  S
N871        H875   1.044       .  S
N871        H876   1.044       .  S
N874        H877   1.045       .  S
N874        H878   1.046       .  S
C879        C884   1.402       .  A
C879        H886   1.084       .  S
C880        C881   1.414   1_554  A
C881        C882   1.401       .  A
C881        N888   1.431       .  S
C882        H887   1.083       .  S
C883        C884   1.410       .  A
C884        N885   1.432       .  S
C893        C894   1.408       .  A
C893        C898   1.401       .  A
C893        H900   1.083       .  S
C894        C895   1.418   1_565  A
C895        C896   1.412       .  A
C895        N902   1.437       .  S
C896        C897   1.401   1_545  A
C896        H901   1.084       .  S
C897        C898   1.403       .  A
C898        N899   1.432       .  S
N899        H903   1.045       .  S
N899        H904   1.046       .  S
C907        C912   1.404       .  A
C907        H914   1.076       .  S
C908        C909   1.416   1_545  A
C909        C910   1.401       .  A
C909        N916   1.433       .  S
C910        C911   1.402       .  A
C910        H915   1.084       .  S
C912        N913   1.433       .  S
N913        H917   1.046       .  S
N913        H918   1.046       .  S
N916        H919   1.046       .  S
N916        H920   1.046       .  S
C921        C922   1.401       .  A
C921        C926   1.402       .  A
C921        H928   1.081       .  S
C923        C924   1.404       .  A
C923        N930   1.432       .  S
C924        H929   1.084       .  S
C925        C926   1.410       .  A
C926        N927   1.431       .  S
N927        H931   1.045       .  S
N927        H932   1.046       .  S
N930        H933   1.046       .  S
C935        C936   1.400   1_556  A
C935        C940   1.405       .  A
C935        H942   1.084       .  S
C937        C938   1.401       .  A
C937        N944   1.438       .  S
C938        C939   1.406       .  A
C938        H943   1.081       .  S
C940        N941   1.432       .  S
N941        H945   1.046       .  S
N941        H946   1.046       .  S
N944        H948   1.045       .  S
C949        C950   1.402       .  A
C949        C954   1.407       .  A
C949        H956   1.084       .  S
C951        C952   1.401       .  A
C951        N958   1.433       .  S
C952        H957   1.084       .  S
C953        C954   1.416       .  A
C954        N955   1.438       .  S
N955        H959   1.046       .  S
N955        H960   1.045       .  S
N958        H961   1.045       .  S
N958        H962   1.046       .  S
C963        C968   1.411       .  A
C963        H970   1.084       .  S
C964        C965   1.408       .  A
C965        C966   1.403       .  A
C965        N972   1.439       .  S
C966        C967   1.411       .  A
C966        H971   1.082       .  S
C968        N969   1.436       .  S
N969        H973   1.045       .  S
N969        H974   1.046       .  S
N972        H975   1.046       .  S
N972        H976   1.045       .  S
C977        C978   1.541       .  S
C977        C983   1.540       .  S
C977       C1469   1.536   1_545  S
C977       C1699   1.540       .  S
C978        H985   1.082       .  S
C978       C1223   1.362       .  D
C979       C1468   1.538   1_545  S
C979       C1222   1.363       .  D
C979       C1180   1.477       .  S
C980       C1467   1.540       .  S
C980       C1472   1.540       .  S
C980        C982   1.541       .  S
C980        H986   1.110       .  S
C981       C1465   1.535       .  S
C981        H987   1.086       .  S
C981       C1226   1.370       .  D
C982       C1225   1.368       .  D
C982       C1166   1.491       .  S
C983       H1232   1.086       .  S
C983       C1228   1.364   1_554  D
C984       C1468   1.538       .  S
C984       C1227   1.362   1_565  D
C984       C1682   1.477   1_565  S
H988       C1227   1.087       .  S
O989        V997   1.902       .  S
O989        C999   1.265       .  A
O990        V997   1.898       .  S
O990       C1000   1.265       .  A
O991        V997   1.892       .  S
O991       C1001   1.263       .  A
O992        V997   1.891       .  S
O992       C1002   1.262       .  A
O993        V998   1.908       .  S
O993       C1490   1.266       .  A
O994        V998   1.907       .  S
O994       C1489   1.266       .  A
O995        V998   1.895       .  S
O995       C1488   1.263       .  A
O996        V998   1.897       .  S
O996       C1487   1.265       .  A
V997       V1486   2.087       .  T
V998       V1485   2.085   1_545  T
C999       O1484   1.265       .  A
C999       C1197   1.483       .  S
C1000      O1483   1.264       .  A
C1000      C1155   1.481       .  S
C1001      O1482   1.266       .  A
C1001      C1138   1.480       .  S
C1002      O1481   1.265       .  A
C1002      C1208   1.471       .  S
C1003      C1004   1.534       .  S
C1003      C1009   1.531       .  S
C1003      C1495   1.546       .  S
C1003      C1152   1.533       .  S
C1004      H1011   1.086       .  S
C1004      C1249   1.364       .  D
C1005      C1006   1.538       .  S
C1005      C1248   1.366       .  D
C1005      C1110   1.482       .  S
C1006      C1010   1.538       .  S
C1006      C1496   1.543       .  S
C1006      H1012   1.110       .  S
C1007      C1491   1.548       .  S
C1007      H1013   1.080       .  S
C1007      C1252   1.370       .  D
C1008      C1494   1.543       .  S
C1008      C1251   1.371       .  D
C1008      C1124   1.490       .  S
C1009      H1258   1.087       .  S
C1009      C1254   1.362   1_554  D
C1010      C1253   1.359       .  D
C1010      C1141   1.476       .  S
H1014      C1253   1.087       .  S
C1015      C1021   1.541       .  S
C1015      C1019   1.542   1_455  S
C1015      C1085   1.536       .  S
C1016      H1023   1.085       .  S
C1016      C1261   1.372       .  D
C1017      C1260   1.368       .  D
C1017      C1183   1.494       .  S
C1018      C1022   1.534       .  S
C1018      C1020   1.535   1_454  S
C1018      H1024   1.110       .  S
C1019      H1025   1.084       .  S
C1019      C1264   1.366       .  D
C1020      C1263   1.363       .  D
C1020      C1127   1.475       .  S
C1021      H1270   1.085       .  S
C1021      C1266   1.359       .  D
C1022      C1265   1.361   1_554  D
C1022      C1099   1.479       .  S
H1026      C1265   1.086       .  S
O1027      V1035   1.902       .  S
O1027      C1037   1.267   1_655  A
O1028      V1035   1.900       .  S
O1028      C1038   1.264   1_655  A
O1029      V1035   1.897       .  S
O1029      C1039   1.263   1_655  A
O1030      V1035   1.896       .  S
O1030      C1040   1.263   1_655  A
O1031      V1036   1.893       .  S
O1032      V1036   1.898       .  S
O1033      V1036   1.901       .  S
O1034      V1036   1.900       .  S
C1037      C1054   1.493       .  S
C1038      C1096   1.485       .  S
C1039      C1082   1.472       .  S
C1040      C1068   1.480       .  S
C1041      C1042   1.539       .  S
C1041      C1291   1.530   1_554  S
C1041      C1071   1.535       .  S
C1042      H1049   1.086       .  S
C1042      C1287   1.369   1_554  D
C1043      C1044   1.546       .  S
C1043      C1286   1.370       .  D
C1043      C1169   1.496       .  S
C1044      C1048   1.541       .  S
C1044      H1050   1.108       .  S
C1045      H1051   1.081       .  S
C1045      C1290   1.364   1_554  D
C1046      C1289   1.365       .  D
C1046      C1113   1.481       .  S
C1047      C1285   1.527       .  S
C1047      H1052   1.087       .  S
C1047      C1048   1.361       .  D
C1048      C1057   1.478       .  S
C1053      C1054   1.406   1_655  A
C1053      C1058   1.400       .  A
C1053      H1060   1.084       .  S
C1055      C1056   1.403       .  A
C1055      N1062   1.432       .  S
C1056      C1057   1.398       .  A
C1056      H1061   1.084       .  S
C1058      N1059   1.433       .  S
N1059      H1063   1.045       .  S
N1059      H1308   1.046       .  S
N1062      H1065   1.046       .  S
N1062      H1066   1.044       .  S
H1064      N1303   1.046       .  S
C1067      C1072   1.401       .  A
C1067      H1074   1.084       .  S
C1068      C1069   1.413   1_455  A
C1069      C1070   1.397       .  A
C1069      N1076   1.433       .  S
C1070      H1075   1.075       .  S
C1071      C1072   1.416       .  A
C1072      N1073   1.433       .  S
N1073      H1077   1.046       .  S
N1073      H1078   1.046       .  S
N1076      H1079   1.046       .  S
N1076      H1080   1.044       .  S
C1081      C1082   1.401   1_655  A
C1081      C1086   1.406       .  A
C1081      H1088   1.084       .  S
C1083      C1084   1.397       .  A
C1083      N1090   1.433       .  S
C1084      H1089   1.084       .  S
C1085      C1086   1.418   1_455  A
C1086      N1087   1.431       .  S
N1087      H1091   1.046       .  S
N1087      H1092   1.046       .  S
N1090      H1093   1.046       .  S
N1090      H1094   1.045       .  S
C1095      C1100   1.405       .  A
C1095      H1102   1.084       .  S
C1096      C1097   1.416   1_455  A
C1097      C1098   1.408       .  A
C1097      N1104   1.438       .  S
C1098      C1099   1.400   1_655  A
C1098      H1103   1.083       .  S
C1100      N1101   1.438       .  S
N1101      H1105   1.046       .  S
N1101      H1106   1.045       .  S
N1104      H1107   1.046       .  S
N1104      H1108   1.046       .  S
C1109      C1110   1.405       .  A
C1109      C1114   1.407       .  A
C1109      H1116   1.084       .  S
C1110      C1355   1.408       .  A
C1111      C1354   1.408       .  A
C1111      C1112   1.395       .  A
C1111      N1118   1.433       .  S
C1112      C1357   1.402   1_554  A
C1112      H1117   1.084       .  S
C1113      C1356   1.402       .  A
C1113      C1114   1.412       .  A
C1114      N1115   1.432       .  S
N1115      H1119   1.045       .  S
N1115      H1120   1.045       .  S
N1118      H1121   1.046       .  S
N1118      H1122   1.046       .  S
C1123      C1368   1.407       .  A
C1123      C1128   1.404       .  A
C1123      H1130   1.084       .  S
C1124      C1367   1.406       .  A
C1124      C1125   1.412       .  A
C1125      C1126   1.402       .  A
C1125      N1132   1.431       .  S
C1126      C1371   1.399       .  A
C1126      H1131   1.082       .  S
C1127      C1370   1.399       .  A
C1127      C1128   1.414   1_556  A
C1128      N1129   1.438       .  S
N1129      H1377   1.045       .  S
N1129      H1378   1.043       .  S
N1132      H1867   1.046       .  S
N1132      H1380   1.045       .  S
H1133      N1373   1.045       .  S
H1134      N1373   1.044       .  S
H1135      N1864   1.046   1_554  S
H1136      N1376   1.046       .  S
C1137      C1138   1.404       .  A
C1137      C1142   1.398       .  A
C1137      H1144   1.084       .  S
C1138      C1139   1.415       .  A
C1139      C1140   1.410       .  A
C1139      N1146   1.437       .  S
C1140      C1141   1.402       .  A
C1140      H1145   1.084       .  S
C1141      C1142   1.406       .  A
C1142      N1143   1.433       .  S
N1143      H1147   1.045       .  S
N1143      H1148   1.046       .  S
N1146      H1637   1.046       .  S
N1146      H1638   1.046       .  S
H1149      N1634   1.046       .  S
H1150      N1634   1.046       .  S
C1151      C1640   1.411       .  A
C1151      C1156   1.402       .  A
C1151      H1158   1.076       .  S
C1152      C1639   1.411       .  A
C1152      C1153   1.418       .  A
C1153      C1154   1.400       .  A
C1153      N1160   1.434       .  S
C1154      C1155   1.401       .  A
C1154      H1159   1.084       .  S
C1155      C1644   1.410       .  A
C1156      C1643   1.407       .  A
C1156      N1157   1.433       .  S
N1157      H1161   1.046       .  S
N1157      H1162   1.046       .  S
N1160      H1163   1.046       .  S
N1160      H1164   1.046       .  S
C1165      C1166   1.402       .  A
C1165      C1170   1.404       .  A
C1165      H1172   1.081       .  S
C1166      C1411   1.412       .  A
C1167      C1410   1.412   1_554  A
C1167      C1168   1.407       .  A
C1167      N1174   1.438       .  S
C1168      C1413   1.406   1_554  A
C1168      H1173   1.084       .  S
C1169      C1412   1.407       .  A
C1169      C1170   1.413       .  A
C1170      N1171   1.431       .  S
N1171      H1175   1.045       .  S
N1171      H1176   1.046       .  S
N1174      H1177   1.046   1_554  S
N1174      H1422   1.046       .  S
H1178      N1418   1.045       .  S
C1179      C1180   1.400       .  A
C1179      C1184   1.408       .  A
C1179      H1186   1.084       .  S
C1180      C1425   1.413       .  A
C1181      C1424   1.416   1_554  A
C1181      C1182   1.400       .  A
C1181      N1188   1.439       .  S
C1182      C1183   1.404   1_554  A
C1182      H1187   1.081       .  S
C1183      C1428   1.416       .  A
C1184      C1427   1.417       .  A
C1184      N1185   1.437       .  S
N1185      H1189   1.046       .  S
N1185      H1190   1.045       .  S
N1188      H1679   1.042       .  S
N1188      H1192   1.045       .  S
H1191      N1676   1.043       .  S
C1193      C1194   1.403       .  A
C1193      C1198   1.402       .  A
C1193      H1200   1.084       .  S
C1194      C1472   1.483       .  S
C1194      C1683   1.409       .  A
C1195      C1682   1.406       .  A
C1195      C1196   1.400       .  A
C1195      N1202   1.433       .  S
C1196      C1685   1.405       .  A
C1196      H1201   1.084       .  S
C1197      C1684   1.406       .  A
C1197      C1198   1.410       .  A
C1198      N1199   1.432       .  S
N1199      H1203   1.046       .  S
N1199      H1204   1.046       .  S
N1202      H1205   1.045       .  S
N1202      H1206   1.046       .  S
C1207      C1696   1.400       .  A
C1207      C1212   1.410       .  A
C1207      H1214   1.084       .  S
C1208      C1695   1.398       .  A
C1208      C1209   1.407       .  A
C1209      C1210   1.401       .  A
C1209      N1216   1.439       .  S
C1210      C1211   1.411       .  A
C1210      H1215   1.081       .  S
C1211      C1465   1.537       .  S
C1211      C1700   1.423       .  A
C1212      C1699   1.424       .  A
C1212      N1213   1.436       .  S
N1213      H1217   1.046       .  S
N1213      H1218   1.045       .  S
N1216      H1219   1.046       .  S
N1216      H1220   1.045       .  S
C1221      C1222   1.544   1_565  S
C1221      C1227   1.538   1_565  S
C1221      C1713   1.536       .  S
C1221      C1943   1.540       .  S
C1222      H1229   1.081       .  S
C1223      C1712   1.541   1_544  S
C1223      C1424   1.478   1_554  S
C1224      C1711   1.541   1_556  S
C1224      C1716   1.539       .  S
C1224      C1226   1.541   1_556  S
C1224      H1230   1.110       .  S
C1225      C1709   1.535       .  S
C1225      H1231   1.086       .  S
C1226      C1410   1.489   1_554  S
C1228      C1712   1.541   1_545  S
C1228      C1926   1.483   1_545  S
O1233      V1241   1.897       .  S
O1233      C1243   1.264       .  A
O1234      V1241   1.896       .  S
O1234      C1244   1.265       .  A
O1235      V1241   1.902       .  S
O1235      C1245   1.265       .  A
O1236      V1241   1.899       .  S
O1236      C1246   1.264       .  A
O1237      V1242   1.902       .  S
O1237      C1734   1.264   1_545  A
O1238      V1242   1.902       .  S
O1238      C1733   1.265       .  A
O1239      V1242   1.902       .  S
O1239      C1732   1.265       .  A
O1240      V1242   1.901       .  S
O1240      C1731   1.265   1_545  A
V1241      V1730   2.086       .  T
V1242      V1729   2.086   1_545  T
C1243      O1728   1.265       .  A
C1243      C1441   1.482       .  S
C1244      O1727   1.265       .  A
C1244      C1399   1.482       .  S
C1245      O1726   1.266       .  A
C1245      C1382   1.485       .  S
C1246      O1725   1.265       .  A
C1246      C1452   1.479       .  S
C1247      C1248   1.536       .  S
C1247      C1253   1.528       .  S
C1247      C1739   1.547       .  S
C1247      C1396   1.532       .  S
C1248      H1255   1.086       .  S
C1249      C1250   1.538   1_554  S
C1249      C1354   1.479       .  S
C1250      C1254   1.541       .  S
C1250      C1740   1.544   1_556  S
C1250      H1256   1.110       .  S
C1251      C1735   1.549       .  S
C1251      H1257   1.081       .  S
C1252      C1738   1.542   1_554  S
C1252      C1368   1.490       .  S
C1254      C1385   1.485       .  S
C1259      C1265   1.540       .  S
C1259      C1263   1.545   1_455  S
C1259      C1329   1.540       .  S
C1260      H1267   1.085       .  S
C1261      C1427   1.498       .  S
C1262      C1266   1.535       .  S
C1262      C1264   1.541   1_455  S
C1262      H1268   1.109       .  S
C1263      H1269   1.081       .  S
C1264      C1371   1.481       .  S
C1266      C1343   1.482       .  S
O1271      V1279   1.904       .  S
O1271      C1281   1.267       .  A
O1272      V1279   1.902       .  S
O1272      C1282   1.265   1_655  A
O1273      V1279   1.900       .  S
O1273      C1283   1.265   1_655  A
O1274      V1279   1.904       .  S
O1274      C1284   1.265       .  A
O1275      V1280   1.896       .  S
O1276      V1280   1.900       .  S
O1277      V1280   1.905       .  S
O1278      V1280   1.908       .  S
C1281      C1298   1.491       .  S
C1282      C1340   1.485       .  S
C1283      C1326   1.481       .  S
C1284      C1312   1.487       .  S
C1285      C1286   1.538       .  S
C1285      C1315   1.532       .  S
C1286      H1293   1.086       .  S
C1287      C1288   1.544       .  S
C1287      C1413   1.492       .  S
C1288      C1292   1.544       .  S
C1288      H1294   1.109       .  S
C1289      H1295   1.082       .  S
C1290      C1357   1.480       .  S
C1291      H1296   1.087       .  S
C1291      C1292   1.364       .  D
C1292      C1301   1.484       .  S
C1297      C1298   1.407       .  A
C1297      C1302   1.402       .  A
C1297      H1304   1.084       .  S
C1299      C1300   1.406       .  A
C1299      N1306   1.432       .  S
C1300      C1301   1.401       .  A
C1300      H1305   1.084       .  S
C1302      N1303   1.433       .  S
N1303      H1307   1.045       .  S
N1306      H1309   1.046       .  S
N1306      H1310   1.044       .  S
C1311      C1316   1.401       .  A
C1311      H1318   1.084       .  S
C1312      C1313   1.415       .  A
C1313      C1314   1.402       .  A
C1313      N1320   1.433       .  S
C1314      H1319   1.077       .  S
C1315      C1316   1.416       .  A
C1316      N1317   1.433       .  S
N1317      H1321   1.046       .  S
N1317      H1322   1.045       .  S
N1320      H1323   1.046       .  S
N1320      H1324   1.045       .  S
C1325      C1326   1.402   1_655  A
C1325      C1330   1.405       .  A
C1325      H1332   1.084       .  S
C1327      C1328   1.397       .  A
C1327      N1334   1.433       .  S
C1328      H1333   1.084       .  S
C1329      C1330   1.419   1_455  A
C1330      N1331   1.431       .  S
N1331      H1335   1.046       .  S
N1331      H1336   1.046       .  S
N1334      H1337   1.046       .  S
N1334      H1338   1.045       .  S
C1339      C1344   1.405       .  A
C1339      H1346   1.083       .  S
C1340      C1341   1.415   1_455  A
C1341      C1342   1.410       .  A
C1341      N1348   1.437       .  S
C1342      C1343   1.401   1_655  A
C1342      H1347   1.083       .  S
C1344      N1345   1.438       .  S
N1345      H1349   1.046       .  S
N1345      H1350   1.046       .  S
N1348      H1351   1.046       .  S
N1348      H1352   1.046       .  S
C1353      C1354   1.404   1_556  A
C1353      C1358   1.405       .  A
C1353      H1360   1.084       .  S
C1355      C1356   1.396       .  A
C1355      N1362   1.433       .  S
C1356      H1361   1.084       .  S
C1357      C1358   1.412       .  A
C1358      N1359   1.432       .  S
N1359      H1363   1.046       .  S
N1359      H1364   1.044       .  S
N1362      H1365   1.045       .  S
N1362      H1366   1.046       .  S
C1367      C1372   1.403       .  A
C1367      H1374   1.084       .  S
C1368      C1369   1.411   1_554  A
C1369      C1370   1.400       .  A
C1369      N1376   1.431       .  S
C1370      H1375   1.084       .  S
C1371      C1372   1.412       .  A
C1372      N1373   1.432       .  S
N1376      H1623   1.045       .  S
H1379      N1620   1.046       .  S
C1381      C1382   1.404       .  A
C1381      C1386   1.405       .  A
C1381      H1388   1.084       .  S
C1382      C1383   1.414       .  A
C1383      C1384   1.411       .  A
C1383      N1390   1.437       .  S
C1384      C1385   1.402       .  A
C1384      H1389   1.084       .  S
C1385      C1386   1.411       .  A
C1386      N1387   1.438       .  S
N1387      H1391   1.045       .  S
N1387      H1392   1.046       .  S
N1390      H1881   1.045       .  S
N1390      H1882   1.046       .  S
H1393      N1878   1.046       .  S
H1394      N1878   1.046       .  S
C1395      C1884   1.411       .  A
C1395      C1400   1.410       .  A
C1395      H1402   1.076       .  S
C1396      C1883   1.410       .  A
C1396      C1397   1.418       .  A
C1397      C1398   1.399       .  A
C1397      N1404   1.434       .  S
C1398      C1399   1.401       .  A
C1398      H1403   1.084       .  S
C1399      C1888   1.410       .  A
C1400      C1887   1.411       .  A
C1400      N1401   1.438       .  S
N1401      H1405   1.045       .  S
N1401      H1406   1.046       .  S
N1404      H1407   1.046       .  S
N1404      H1408   1.046       .  S
C1409      C1410   1.402       .  A
C1409      C1414   1.404       .  A
C1409      H1416   1.081       .  S
C1411      C1412   1.406       .  A
C1411      N1418   1.438       .  S
C1412      H1417   1.083       .  S
C1413      C1414   1.412       .  A
C1414      N1415   1.431       .  S
N1415      H1419   1.045       .  S
N1415      H1420   1.046       .  S
N1418      H1421   1.046       .  S
C1423      C1424   1.400       .  A
C1423      C1428   1.406       .  A
C1423      H1430   1.083       .  S
C1425      C1426   1.400       .  A
C1425      N1432   1.439       .  S
C1426      C1427   1.407       .  A
C1426      H1431   1.080       .  S
C1428      N1429   1.438       .  S
N1429      H1433   1.045       .  S
N1429      H1434   1.046       .  S
N1432      H1923   1.042       .  S
N1432      H1436   1.046       .  S
H1435      N1920   1.041       .  S
C1437      C1438   1.402       .  A
C1437      C1442   1.402       .  A
C1437      H1444   1.084       .  S
C1438      C1716   1.481       .  S
C1438      C1927   1.408       .  A
C1439      C1926   1.408   1_545  A
C1439      C1440   1.408       .  A
C1439      N1446   1.436       .  S
C1440      C1929   1.407   1_545  A
C1440      H1445   1.084       .  S
C1441      C1928   1.405       .  A
C1441      C1442   1.411       .  A
C1442      N1443   1.433       .  S
N1443      H1447   1.046       .  S
N1443      H1448   1.046       .  S
N1446      H1449   1.045       .  S
N1446      H1450   1.045       .  S
C1451      C1940   1.399   1_545  A
C1451      C1456   1.409       .  A
C1451      H1458   1.084       .  S
C1452      C1939   1.401       .  A
C1452      C1453   1.408       .  A
C1453      C1454   1.403       .  A
C1453      N1460   1.439       .  S
C1454      C1455   1.412       .  A
C1454      H1459   1.083       .  S
C1455      C1709   1.541       .  S
C1455      C1944   1.423       .  A
C1456      C1943   1.423   1_545  A
C1456      N1457   1.435       .  S
N1457      H1461   1.046       .  S
N1457      H1462   1.046       .  S
N1460      H1463   1.046       .  S
N1460      H1464   1.046       .  S
C1465      C1466   1.541       .  S
C1465      C1471   1.541       .  S
C1466      H1473   1.084       .  S
C1466      C1711   1.361       .  D
C1467      C1710   1.364       .  D
C1467      C1668   1.480       .  S
C1468      C1470   1.543       .  S
C1468      H1474   1.111       .  S
C1469      H1475   1.086       .  S
C1469      C1714   1.369       .  D
C1470      C1713   1.369       .  D
C1470      C1654   1.494       .  S
C1471      H1720   1.085       .  S
C1471      C1716   1.363   1_554  D
C1472      C1715   1.363       .  D
H1476      C1715   1.087       .  S
O1477      V1485   1.902       .  S
O1477      C1487   1.265   1_565  A
O1478      V1485   1.897       .  S
O1478      C1488   1.264   1_565  A
O1479      V1485   1.900       .  S
O1479      C1489   1.265   1_565  A
O1480      V1485   1.895       .  S
O1480      C1490   1.263   1_565  A
O1481      V1486   1.905       .  S
O1482      V1486   1.907       .  S
O1483      V1486   1.898       .  S
O1484      V1486   1.900       .  S
C1487      C1685   1.485       .  S
C1488      C1643   1.476       .  S
C1489      C1626   1.487       .  S
C1490      C1696   1.477       .  S
C1491      C1492   1.534   1_545  S
C1491      C1497   1.533       .  S
C1491      C1640   1.532       .  S
C1492      H1499   1.087       .  S
C1492      C1737   1.364       .  D
C1493      C1494   1.538   1_565  S
C1493      C1736   1.365       .  D
C1493      C1598   1.481       .  S
C1494      C1498   1.541       .  S
C1494      H1500   1.110       .  S
C1495      H1501   1.081       .  S
C1495      C1740   1.369       .  D
C1496      C1739   1.371       .  D
C1496      C1612   1.487       .  S
C1497      H1746   1.087       .  S
C1497      C1742   1.360   1_554  D
C1498      C1741   1.361       .  D
C1498      C1629   1.481       .  S
H1502      C1741   1.087       .  S
C1503      C1509   1.539       .  S
C1503      C1507   1.542   1_455  S
C1503      C1573   1.535       .  S
C1504      H1511   1.085       .  S
C1504      C1749   1.371       .  D
C1505      C1748   1.371       .  D
C1505      C1671   1.494       .  S
C1506      C1510   1.536       .  S
C1506      C1508   1.536   1_454  S
C1506      H1512   1.109       .  S
C1507      H1513   1.082       .  S
C1507      C1752   1.363       .  D
C1508      C1751   1.361       .  D
C1508      C1615   1.476       .  S
C1509      H1758   1.086       .  S
C1509      C1754   1.359       .  D
C1510      C1753   1.364   1_554  D
C1510      C1587   1.485       .  S
H1514      C1753   1.086       .  S
O1515      V1523   1.905       .  S
O1515      C1525   1.267       .  A
O1516      V1523   1.903       .  S
O1516      C1526   1.265   1_655  A
O1517      V1523   1.896       .  S
O1517      C1527   1.263   1_655  A
O1518      V1523   1.896       .  S
O1518      C1528   1.263       .  A
O1519      V1524   1.901       .  S
O1520      V1524   1.899       .  S
O1521      V1524   1.901       .  S
O1522      V1524   1.903       .  S
C1525      C1542   1.492       .  S
C1526      C1584   1.482       .  S
C1527      C1570   1.471       .  S
C1528      C1556   1.477       .  S
C1529      C1530   1.538       .  S
C1529      C1779   1.523   1_554  S
C1529      C1559   1.536       .  S
C1530      H1537   1.086       .  S
C1530      C1775   1.371   1_554  D
C1531      C1532   1.548       .  S
C1531      C1774   1.372       .  D
C1531      C1657   1.501       .  S
C1532      C1536   1.548       .  S
C1532      H1538   1.107       .  S
C1533      H1539   1.081       .  S
C1533      C1778   1.366   1_554  D
C1534      C1777   1.365       .  D
C1534      C1601   1.484       .  S
C1535      C1773   1.528       .  S
C1535      H1540   1.087       .  S
C1535      C1536   1.364       .  D
C1536      C1545   1.489       .  S
C1541      C1542   1.405       .  A
C1541      C1546   1.405       .  A
C1541      H1548   1.083       .  S
C1543      C1544   1.406       .  A
C1543      N1550   1.432       .  S
C1544      C1545   1.402       .  A
C1544      H1549   1.084       .  S
C1546      N1547   1.438       .  S
N1547      H1551   1.046       .  S
N1547      H1796   1.043       .  S
N1550      H1553   1.046       .  S
N1550      H1554   1.044       .  S
H1552      N1791   1.044       .  S
C1555      C1560   1.405       .  A
C1555      H1562   1.084       .  S
C1556      C1557   1.412       .  A
C1557      C1558   1.398       .  A
C1557      N1564   1.433       .  S
C1558      H1563   1.076       .  S
C1559      C1560   1.417       .  A
C1560      N1561   1.433       .  S
N1561      H1565   1.046       .  S
N1561      H1566   1.046       .  S
N1564      H1567   1.046       .  S
N1564      H1568   1.044       .  S
C1569      C1570   1.401   1_655  A
C1569      C1574   1.405       .  A
C1569      H1576   1.084       .  S
C1571      C1572   1.393       .  A
C1571      N1578   1.434       .  S
C1572      H1577   1.079       .  S
C1573      C1574   1.418   1_455  A
C1574      N1575   1.431       .  S
N1575      H1579   1.046       .  S
N1575      H1580   1.046       .  S
N1578      H1581   1.046       .  S
N1578      H1582   1.044       .  S
C1583      C1588   1.403       .  A
C1583      H1590   1.084       .  S
C1584      C1585   1.414   1_455  A
C1585      C1586   1.410       .  A
C1585      N1592   1.437       .  S
C1586      C1587   1.403   1_655  A
C1586      H1591   1.083       .  S
C1588      N1589   1.432       .  S
N1589      H1593   1.045       .  S
N1589      H1594   1.046       .  S
N1592      H1595   1.046       .  S
N1592      H1596   1.046       .  S
C1597      C1598   1.404       .  A
C1597      C1602   1.406       .  A
C1597      H1604   1.084       .  S
C1598      C1843   1.408       .  A
C1599      C1842   1.405       .  A
C1599      C1600   1.395       .  A
C1599      N1606   1.433       .  S
C1600      C1845   1.403   1_554  A
C1600      H1605   1.084       .  S
C1601      C1844   1.403       .  A
C1601      C1602   1.413       .  A
C1602      N1603   1.430       .  S
N1603      H1607   1.043       .  S
N1603      H1608   1.044       .  S
N1606      H1609   1.046       .  S
N1606      H1610   1.045       .  S
C1611      C1856   1.407       .  A
C1611      C1616   1.401       .  A
C1611      H1618   1.084       .  S
C1612      C1855   1.407       .  A
C1612      C1613   1.411       .  A
C1613      C1614   1.400       .  A
C1613      N1620   1.431       .  S
C1614      C1859   1.398       .  A
C1614      H1619   1.083       .  S
C1615      C1858   1.399       .  A
C1615      C1616   1.410   1_556  A
C1616      N1617   1.432       .  S
N1617      H1865   1.045   1_554  S
N1617      H1866   1.045       .  S
N1620      H1868   1.045       .  S
H1621      N1861   1.045       .  S
H1622      N1861   1.045       .  S
H1624      N1864   1.045       .  S
C1625      C1626   1.405   1_565  A
C1625      C1630   1.401       .  A
C1625      H1632   1.084       .  S
C1626      C1627   1.417       .  A
C1627      C1628   1.412       .  A
C1627      N1634   1.437       .  S
C1628      C1629   1.401       .  A
C1628      H1633   1.084       .  S
C1629      C1630   1.407   1_545  A
C1630      N1631   1.433       .  S
N1631      H1635   1.046       .  S
N1631      H1636   1.046       .  S
C1639      C1644   1.404       .  A
C1639      H1646   1.077       .  S
C1640      C1641   1.419   1_545  A
C1641      C1642   1.400       .  A
C1641      N1648   1.434       .  S
C1642      C1643   1.400   1_565  A
C1642      H1647   1.084       .  S
C1644      N1645   1.433       .  S
N1645      H1649   1.046       .  S
N1645      H1650   1.046       .  S
N1648      H1651   1.045       .  S
N1648      H1652   1.046       .  S
C1653      C1654   1.403       .  A
C1653      C1658   1.406       .  A
C1653      H1660   1.083       .  S
C1654      C1899   1.413       .  A
C1655      C1898   1.412   1_554  A
C1655      C1656   1.406       .  A
C1655      N1662   1.438       .  S
C1656      C1901   1.406   1_554  A
C1656      H1661   1.084       .  S
C1657      C1900   1.408       .  A
C1657      C1658   1.414       .  A
C1658      N1659   1.431       .  S
N1659      H1663   1.045       .  S
N1659      H1664   1.046       .  S
N1662      H1665   1.046   1_554  S
N1662      H1910   1.046       .  S
H1666      N1906   1.047       .  S
C1667      C1668   1.401       .  A
C1667      C1672   1.408       .  A
C1667      H1674   1.083       .  S
C1668      C1913   1.415       .  A
C1669      C1912   1.415   1_554  A
C1669      C1670   1.399       .  A
C1669      N1676   1.438       .  S
C1670      C1671   1.404   1_554  A
C1670      H1675   1.081       .  S
C1671      C1916   1.416       .  A
C1672      C1915   1.417       .  A
C1672      N1673   1.437       .  S
N1673      H1677   1.045       .  S
N1673      H1678   1.046       .  S
N1676      H1680   1.045       .  S
C1681      C1682   1.400   1_565  A
C1681      C1686   1.407       .  A
C1681      H1688   1.084       .  S
C1683      C1684   1.409       .  A
C1683      N1690   1.436       .  S
C1684      H1689   1.084       .  S
C1685      C1686   1.415   1_545  A
C1686      N1687   1.432       .  S
N1687      H1691   1.046       .  S
N1687      H1692   1.046       .  S
N1690      H1693   1.045       .  S
N1690      H1694   1.045       .  S
C1695      C1700   1.409       .  A
C1695      H1702   1.084       .  S
C1696      C1697   1.407   1_545  A
C1697      C1698   1.402       .  A
C1697      N1704   1.439       .  S
C1698      C1699   1.410   1_565  A
C1698      H1703   1.083       .  S
C1700      N1701   1.437       .  S
N1701      H1705   1.046       .  S
N1701      H1706   1.045       .  S
N1704      H1707   1.045       .  S
N1704      H1708   1.046       .  S
C1709      C1710   1.545       .  S
C1709      C1715   1.540       .  S
C1710      H1717   1.081       .  S
C1711      C1912   1.478   1_554  S
C1712      C1714   1.540   1_556  S
C1712      H1718   1.110       .  S
C1713      H1719   1.086       .  S
C1714      C1898   1.491   1_554  S
O1721      V1729   1.901       .  S
O1721      C1731   1.265       .  A
O1722      V1729   1.898       .  S
O1722      C1732   1.265   1_565  A
O1723      V1729   1.900       .  S
O1723      C1733   1.265   1_565  A
O1724      V1729   1.898       .  S
O1724      C1734   1.264       .  A
O1725      V1730   1.902       .  S
O1726      V1730   1.906       .  S
O1727      V1730   1.900       .  S
O1728      V1730   1.901       .  S
C1731      C1929   1.484       .  S
C1732      C1887   1.482       .  S
C1733      C1870   1.486       .  S
C1734      C1940   1.476       .  S
C1735      C1736   1.535   1_545  S
C1735      C1741   1.530       .  S
C1735      C1884   1.536       .  S
C1736      H1743   1.087       .  S
C1737      C1738   1.536   1_564  S
C1737      C1842   1.477       .  S
C1738      C1742   1.536       .  S
C1738      H1744   1.110       .  S
C1739      H1745   1.082       .  S
C1740      C1856   1.489       .  S
C1742      C1873   1.476       .  S
C1747      C1753   1.541   1_655  S
C1747      C1751   1.544       .  S
C1747      C1817   1.540       .  S
C1748      H1755   1.085       .  S
C1749      C1915   1.496       .  S
C1750      C1754   1.537       .  S
C1750      C1752   1.539   1_455  S
C1750      H1756   1.110   1_455  S
C1751      H1757   1.078       .  S
C1752      C1859   1.475       .  S
C1754      C1831   1.483       .  S
O1759      V1767   1.901       .  S
O1759      C1769   1.266       .  A
O1760      V1767   1.901       .  S
O1760      C1770   1.264   1_655  A
O1761      V1767   1.902       .  S
O1761      C1771   1.266   1_655  A
O1762      V1767   1.903       .  S
O1762      C1772   1.265       .  A
O1763      V1768   1.900       .  S
O1764      V1768   1.900       .  S
O1765      V1768   1.900       .  S
O1766      V1768   1.903       .  S
C1769      C1786   1.490       .  S
C1770      C1828   1.483       .  S
C1771      C1814   1.483       .  S
C1772      C1800   1.479       .  S
C1773      C1774   1.539       .  S
C1773      C1803   1.541       .  S
C1774      H1781   1.086       .  S
C1775      C1776   1.548       .  S
C1775      C1901   1.495       .  S
C1776      C1780   1.547       .  S
C1776      H1782   1.109       .  S
C1777      H1783   1.080       .  S
C1778      C1845   1.482       .  S
C1779      H1784   1.087       .  S
C1779      C1780   1.361       .  D
C1780      C1789   1.484       .  S
C1785      C1786   1.406       .  A
C1785      C1790   1.404       .  A
C1785      H1792   1.083       .  S
C1787      C1788   1.405       .  A
C1787      N1794   1.432       .  S
C1788      C1789   1.401       .  A
C1788      H1793   1.084       .  S
C1790      N1791   1.438       .  S
N1791      H1795   1.046       .  S
N1794      H1797   1.046       .  S
N1794      H1798   1.045       .  S
C1799      C1804   1.404       .  A
C1799      H1806   1.084       .  S
C1800      C1801   1.411       .  A
C1801      C1802   1.400       .  A
C1801      N1808   1.433       .  S
C1802      H1807   1.075       .  S
C1803      C1804   1.417       .  A
C1804      N1805   1.433       .  S
N1805      H1809   1.046       .  S
N1805      H1810   1.045       .  S
N1808      H1811   1.046       .  S
N1808      H1812   1.044       .  S
C1813      C1814   1.401   1_655  A
C1813      C1818   1.405       .  A
C1813      H1820   1.084       .  S
C1815      C1816   1.398       .  A
C1815      N1822   1.433       .  S
C1816      H1821   1.083       .  S
C1817      C1818   1.421       .  A
C1818      N1819   1.429       .  S
N1819      H1823   1.046       .  S
N1819      H1824   1.046       .  S
N1822      H1825   1.046       .  S
N1822      H1826   1.045       .  S
C1827      C1832   1.399       .  A
C1827      H1834   1.084       .  S
C1828      C1829   1.416   1_455  A
C1829      C1830   1.411       .  A
C1829      N1836   1.437       .  S
C1830      C1831   1.401   1_655  A
C1830      H1835   1.083       .  S
C1832      N1833   1.433       .  S
N1833      H1837   1.046       .  S
N1833      H1838   1.046       .  S
N1836      H1839   1.046       .  S
N1836      H1840   1.046       .  S
C1841      C1842   1.402   1_556  A
C1841      C1846   1.407       .  A
C1841      H1848   1.084       .  S
C1843      C1844   1.396       .  A
C1843      N1850   1.433       .  S
C1844      H1849   1.084       .  S
C1845      C1846   1.418       .  A
C1846      N1847   1.437       .  S
N1847      H1851   1.046       .  S
N1847      H1852   1.041       .  S
N1850      H1853   1.046       .  S
N1850      H1854   1.046       .  S
C1855      C1860   1.401       .  A
C1855      H1862   1.084       .  S
C1856      C1857   1.412   1_554  A
C1857      C1858   1.401       .  A
C1857      N1864   1.431       .  S
C1858      H1863   1.083       .  S
C1859      C1860   1.410       .  A
C1860      N1861   1.432       .  S
C1869      C1870   1.407   1_565  A
C1869      C1874   1.402       .  A
C1869      H1876   1.084       .  S
C1870      C1871   1.417       .  A
C1871      C1872   1.409       .  A
C1871      N1878   1.437       .  S
C1872      C1873   1.400       .  A
C1872      H1877   1.084       .  S
C1873      C1874   1.404   1_545  A
C1874      N1875   1.433       .  S
N1875      H1879   1.046       .  S
N1875      H1880   1.045       .  S
C1883      C1888   1.405       .  A
C1883      H1890   1.077       .  S
C1884      C1885   1.419   1_545  A
C1885      C1886   1.400       .  A
C1885      N1892   1.434       .  S
C1886      C1887   1.400   1_565  A
C1886      H1891   1.084       .  S
C1888      N1889   1.432       .  S
N1889      H1893   1.046       .  S
N1889      H1894   1.046       .  S
N1892      H1895   1.046       .  S
N1892      H1896   1.046       .  S
C1897      C1898   1.403       .  A
C1897      C1902   1.406       .  A
C1897      H1904   1.082       .  S
C1899      C1900   1.409       .  A
C1899      N1906   1.438       .  S
C1900      H1905   1.083       .  S
C1901      C1902   1.413       .  A
C1902      N1903   1.431       .  S
N1903      H1907   1.045       .  S
N1903      H1908   1.046       .  S
N1906      H1909   1.045       .  S
C1911      C1912   1.401       .  A
C1911      C1916   1.407       .  A
C1911      H1918   1.082       .  S
C1913      C1914   1.400       .  A
C1913      N1920   1.438       .  S
C1914      C1915   1.405       .  A
C1914      H1919   1.081       .  S
C1916      N1917   1.438       .  S
N1917      H1921   1.045       .  S
N1917      H1922   1.046       .  S
N1920      H1924   1.046       .  S
C1925      C1926   1.403       .  A
C1925      C1930   1.405       .  A
C1925      H1932   1.084       .  S
C1927      C1928   1.407       .  A
C1927      N1934   1.435       .  S
C1928      H1933   1.084       .  S
C1929      C1930   1.414       .  A
C1930      N1931   1.438       .  S
N1931      H1935   1.046       .  S
N1931      H1936   1.045       .  S
N1934      H1937   1.045       .  S
N1934      H1938   1.045       .  S
C1939      C1944   1.409       .  A
C1939      H1946   1.084       .  S
C1940      C1941   1.407       .  A
C1941      C1942   1.403       .  A
C1941      N1948   1.439       .  S
C1942      C1943   1.412       .  A
C1942      H1947   1.083       .  S
C1944      N1945   1.435       .  S
N1945      H1949   1.046       .  S
N1945      H1950   1.046       .  S
N1948      H1951   1.046       .  S
N1948      H1952   1.045       .  S
