geometry optimzed in LAMMPS
_audit_creation_date              2020-11-30 
_audit_creation_method            'lammps2cif' 
_symmetry_space_group_name_H-M    'P1' 
_symmetry_Int_Tables_number       1 
_symmetry_cell_setting            triclinic 
loop_ 
_symmetry_equiv_pos_as_xyz 
  x,y,z 
_cell_length_a                    38.69729748 
_cell_length_b                    38.80424320383165 
_cell_length_c                    38.689031180189346 
_cell_angle_alpha                 89.96184405220392 
_cell_angle_beta                  90.2026590848434 
_cell_angle_gamma                 89.95920946372355 
loop_ 
_atom_site_label 
_atom_site_type_symbol 
_atom_site_fract_x 
_atom_site_fract_y 
_atom_site_fract_z 
_atom_site_charge 
N1          N  0.55941940  0.46223935  0.04590257    -0.06500
N2          N  0.58179060  0.45714969  0.07126527    -0.58600
N3          N  0.53906213  0.43250072  0.46704591    -0.06200
N4          N  0.54593216  0.40925292  0.44309723    -0.60800
N5          N  0.56281996  0.45665884  0.46714409    -0.05800
N6          N  0.58620676  0.45065796  0.44338939    -0.58600
N7          N  0.53575364  0.43795122  0.04598136    -0.05500
N8          N  0.54142854  0.41591036  0.07130580    -0.61100
C9          C  0.57004542  0.42829444  0.08706547     0.95700
C10         C  0.57539119  0.42116317  0.42851530     0.95400
N11         N  0.43397636  0.45619805  0.46129691    -0.06700
N12         N  0.41296933  0.44964305  0.43529274    -0.59200
N13         N  0.45523155  0.43830970  0.04288593    -0.04800
N14         N  0.44861823  0.41757960  0.06903452    -0.60500
N15         N  0.43125499  0.46218171  0.04025184    -0.06700
N16         N  0.40759927  0.45801418  0.06436112    -0.59500
N17         N  0.45789776  0.43226903  0.46380125    -0.04500
N18         N  0.45350697  0.40865242  0.43968206    -0.60600
Mn19       Mn  0.49692976  0.43403328  0.00492300     1.18400
C20         C  0.42551489  0.42001706  0.42199322     0.97700
C21         C  0.41895050  0.43027351  0.08230565     0.98400
N22         N  0.56320438  0.53601542  0.45966404    -0.06800
N23         N  0.58756454  0.53975559  0.43619298    -0.63100
N24         N  0.53580091  0.56787534  0.03371251    -0.05600
N25         N  0.54088782  0.59308871  0.05604484    -0.63700
N26         N  0.55885339  0.54336958  0.03813503    -0.06300
N27         N  0.58002225  0.55115140  0.06360207    -0.63300
N28         N  0.53875390  0.55914070  0.45523067    -0.05200
N29         N  0.54583204  0.57904793  0.42858637    -0.64000
Mn30       Mn  0.56210393  0.49959560  0.00305591     1.10700
C31         C  0.57620894  0.56650051  0.41683759     0.99000
C32         C  0.56841735  0.58206125  0.07461194     0.99000
N33         N  0.43182394  0.54297325  0.03331480    -0.06300
N34         N  0.40976926  0.55040630  0.05813017    -0.61600
N35         N  0.45731907  0.55933612  0.45213272    -0.05600
N36         N  0.45089093  0.58007431  0.42582233    -0.58400
N37         N  0.43313571  0.53572276  0.45456712    -0.06900
N38         N  0.40976696  0.53980538  0.43009247    -0.61200
N39         N  0.45558458  0.56704033  0.03096681    -0.05900
N40         N  0.45034466  0.59131757  0.05412084    -0.58400
Mn41       Mn  0.43138616  0.49924617  0.49749416     1.20200
Mn42       Mn  0.49684100  0.56448839  0.49264509     1.10100
Cl43       Cl  0.49682022  0.49934495  0.99958728    -0.86400
C44         C  0.42179585  0.58056309  0.07094380     0.96000
C45         C  0.42127119  0.56735229  0.41219381     0.95800
N46         N  0.43786312  0.95952134  0.04425454    -0.06500
N47         N  0.41231988  0.93893436  0.05367288    -0.58600
N48         N  0.46225799  0.03801201  0.06641757    -0.06200
N49         N  0.45330257  0.05949590  0.09133882    -0.60800
N50         N  0.43872078  0.03808129  0.04169892    -0.05800
N51         N  0.41362938  0.05987660  0.04916544    -0.58600
N52         N  0.46226004  0.95962700  0.06812148    -0.05500
N53         N  0.45377891  0.93901500  0.09396290    -0.61100
C54         C  0.42268537  0.92599846  0.08457632     0.95700
C55         C  0.42329078  0.07333814  0.07988303     0.95400
N56         N  0.56908042  0.03794623  0.04269332    -0.06700
N57         N  0.59391893  0.06009899  0.05040085    -0.59200
N58         N  0.54496941  0.95916248  0.06807285    -0.04800
N59         N  0.55293822  0.93687292  0.09276969    -0.60500
N60         N  0.56886894  0.95898652  0.04393683    -0.06700
N61         N  0.59347924  0.93671643  0.05178837    -0.59500
N62         N  0.54508459  0.03840726  0.06676179    -0.04500
N63         N  0.55317820  0.06098280  0.09112278    -0.60600
Mn64       Mn  0.50370321  0.99879312  0.06792565     1.18400
C65         C  0.58360663  0.07460790  0.08053379     0.97700
C66         C  0.58317537  0.92282057  0.08214091     0.98400
N67         N  0.43807556  0.03618296  0.45889393    -0.06800
N68         N  0.41303097  0.05763661  0.44981954    -0.63100
N69         N  0.46178841  0.95652354  0.43725985    -0.05600
N70         N  0.45317684  0.93415886  0.41289457    -0.63700
N71         N  0.43763469  0.95766225  0.46117592    -0.06300
N72         N  0.41209269  0.93645064  0.45329591    -0.63300
N73         N  0.46227594  0.03563850  0.43502102    -0.05200
N74         N  0.45419425  0.05693298  0.40951195    -0.64000
Mn75       Mn  0.43759502  0.99787436  0.00150279     1.10700
C76         C  0.42351558  0.07073358  0.41911023     0.99000
C77         C  0.42238682  0.92150356  0.42350886     0.99000
N78         N  0.56871958  0.95697450  0.46160904    -0.06300
N79         N  0.59358498  0.93479146  0.45419889    -0.61600
N80         N  0.54523471  0.03483016  0.43495788    -0.05600
N81         N  0.55396262  0.05550378  0.40922116    -0.58400
N82         N  0.56870940  0.03603673  0.45970271    -0.06900
N83         N  0.59347127  0.05797677  0.45148283    -0.61200
N84         N  0.54482245  0.95657386  0.43725096    -0.05900
N85         N  0.55327727  0.93450565  0.41266477    -0.58400
Mn86       Mn  0.56939695  0.99756964  0.00200639     1.20200
Mn87       Mn  0.50350031  0.99584654  0.43557207     1.10100
Cl88       Cl  0.50354678  0.99754171  0.00174345    -0.86400
C89         C  0.58338029  0.92066109  0.42386968     0.96000
C90         C  0.58381722  0.07010765  0.42011490     0.95800
N91         N  0.96364130  0.56416920  0.03931746    -0.06500
N92         N  0.94123414  0.58898465  0.04609849    -0.58600
N93         N  0.04201008  0.54105391  0.06588457    -0.06200
N94         N  0.06218915  0.55087068  0.09174348    -0.60800
N95         N  0.04268554  0.56417871  0.04089146    -0.05800
N96         N  0.06358104  0.58980950  0.04919433    -0.58600
N97         N  0.96339140  0.54088813  0.06417489    -0.05500
N98         N  0.94107184  0.54974819  0.08843119    -0.61100
C99         C  0.92700762  0.57942642  0.07650204     0.95700
C100        C  0.07596174  0.58093963  0.08065547     0.95400
N101        N  0.04216376  0.43364971  0.04310803    -0.06700
N102        N  0.06252400  0.40786622  0.05224581    -0.59200
N103        N  0.96350530  0.45774873  0.06617148    -0.04800
N104        N  0.94266632  0.44860955  0.09164237    -0.60500
N105        N  0.96345384  0.43394714  0.04188219    -0.06700
N106        N  0.94240256  0.40848528  0.05024906    -0.59500
N107        N  0.04215732  0.45763529  0.06724350    -0.04500
N108        N  0.06251595  0.44833148  0.09324041    -0.60600
Mn109      Mn  0.00281623  0.49940819  0.06645045     1.18400
C110        C  0.07534730  0.41732071  0.08340488     0.97700
C111        C  0.92920771  0.41818030  0.08102675     0.98400
N112        N  0.04414961  0.56286021  0.45774583    -0.06800
N113        N  0.06551513  0.58791152  0.44874817    -0.63100
N114        N  0.96528907  0.53914578  0.43315989    -0.05600
N115        N  0.94370286  0.54694249  0.40778003    -0.63700
N116        N  0.96515541  0.56358877  0.45672697    -0.06300
N117        N  0.94359893  0.58851882  0.44767360    -0.63300
N118        N  0.04440219  0.53826821  0.43424029    -0.05200
N119        N  0.06598220  0.54621755  0.40901597    -0.64000
Mn120      Mn  0.00398155  0.56419224  0.99871678     1.10700
C121        C  0.07929267  0.57712127  0.41843918     0.99000
C122        C  0.93010370  0.57769211  0.41719656     0.99000
N123        N  0.96396013  0.43332105  0.45928094    -0.06300
N124        N  0.94171652  0.40874670  0.45116183    -0.61600
N125        N  0.04273804  0.45486971  0.43494518    -0.05600
N126        N  0.06221823  0.44397849  0.40907344    -0.58400
N127        N  0.04288316  0.43198972  0.46015323    -0.06900
N128        N  0.06292110  0.40558806  0.45211754    -0.61200
N129        N  0.96419886  0.45721518  0.43509629    -0.05900
N130        N  0.94203318  0.44945798  0.41028241    -0.58400
Mn131      Mn  0.00318766  0.43292170  0.00110480     1.20200
Mn132      Mn  0.00429628  0.49740940  0.43392471     1.10100
Cl133      Cl  0.00372494  0.49849043  0.00008438    -0.86400
C134        C  0.92795397  0.41929908  0.42068366     0.96000
C135        C  0.07511321  0.41351562  0.42040136     0.95800
C136        C  0.25210762  0.25151477  0.21709145     0.45100
H137        H  0.24996774  0.25447528  0.18860649    -0.04000
C138        C  0.25681094  0.24572435  0.28362443     0.45100
H139        H  0.25975240  0.24283897  0.31200096    -0.04000
C140        C  0.27816996  0.27627614  0.23324633    -0.17700
C141        C  0.21818086  0.26019881  0.23576652    -0.17400
C142        C  0.26505587  0.21563900  0.22883556    -0.17800
C143        C  0.28079802  0.27306930  0.26829732    -0.17800
C144        C  0.22037237  0.25739405  0.27144442    -0.17300
C145        C  0.26715825  0.21258884  0.26440352    -0.17700
C146        C  0.74400814  0.25509039  0.21931206     0.45100
H147        H  0.74060026  0.25457611  0.19080211    -0.04000
C148        C  0.75042333  0.25610321  0.28595911     0.45100
H149        H  0.75375574  0.25731571  0.31442797    -0.04000
C150        C  0.72053189  0.28141385  0.23702214    -0.17700
C151        C  0.73406969  0.22071180  0.23654903    -0.17400
C152        C  0.78068472  0.26543542  0.23137286    -0.17800
C153        C  0.72405684  0.28191432  0.27208428    -0.17800
C154        C  0.73669683  0.22117386  0.27231393    -0.17300
C155        C  0.78387612  0.26591156  0.26697675    -0.17700
C156        C  0.25406472  0.75384633  0.21576415     0.45100
H157        H  0.25528663  0.75831648  0.18741820    -0.04000
C158        C  0.25203632  0.74350613  0.28189790     0.45100
H159        H  0.25151138  0.73882305  0.31024737    -0.04000
C160        C  0.27898822  0.72584839  0.22824466    -0.17700
C161        C  0.26488820  0.78567005  0.23695044    -0.17400
C162        C  0.21841353  0.74088578  0.22841955    -0.17800
C163        C  0.27754925  0.72009763  0.26301132    -0.17800
C164        C  0.26397721  0.78016362  0.27221701    -0.17300
C165        C  0.21740270  0.73584656  0.26384503    -0.17700
C166        C  0.74423370  0.74512404  0.21660116     0.45100
H167        H  0.74133211  0.74787274  0.18813915    -0.04000
C168        C  0.75000709  0.73909494  0.28301525     0.45100
H169        H  0.75274649  0.73594820  0.31142314    -0.04000
C170        C  0.71950108  0.71869422  0.23214789    -0.17700
C171        C  0.78020686  0.73221301  0.22796413    -0.17400
C172        C  0.73555192  0.77845329  0.23615097    -0.17800
C173        C  0.72288056  0.71519710  0.26720084    -0.17800
C174        C  0.78334484  0.72960368  0.26351380    -0.17300
C175        C  0.73757732  0.77531636  0.27173470    -0.17700
C176        C  0.19459861  0.72282048  0.20365943    -0.01700
C177        C  0.15876193  0.72165015  0.20874857    -0.09700
C178        C  0.13780193  0.69992420  0.18861500    -0.18500
C179        C  0.15218097  0.67856526  0.16261119     0.03800
C180        C  0.18816505  0.68153542  0.15627119     0.18000
C181        C  0.20864172  0.70361901  0.17633975    -0.20000
C182        C  0.20393481  0.66167703  0.13056584    -0.21200
C183        C  0.18476000  0.63854960  0.11100732    -0.19800
C184        C  0.14939036  0.63436392  0.11689825     0.19400
C185        C  0.13250201  0.65412982  0.14290866     0.01500
C186        C  0.09687475  0.64801450  0.14834529    -0.14500
C187        C  0.07892442  0.62355381  0.12864860    -0.12200
C188        C  0.09570732  0.60479028  0.10278930     0.01100
C189        C  0.13083724  0.61035047  0.09692139    -0.24400
H190        H  0.14707610  0.73673737  0.22914836     0.09100
H191        H  0.11057961  0.69996153  0.19436377     0.12600
H192        H  0.23608108  0.70433657  0.17145845     0.11400
H193        H  0.23142562  0.66385132  0.12571714     0.12600
H194        H  0.19780028  0.62352064  0.09136521     0.11600
H195        H  0.08226902  0.66157544  0.16771712     0.08700
H196        H  0.05159440  0.61966596  0.13322871     0.11900
H197        H  0.14375707  0.59581369  0.07680597     0.13800
C198        C  0.19263887  0.71282751  0.28255830    -0.01700
C199        C  0.18780883  0.67840522  0.27244245    -0.09700
C200        C  0.16939709  0.65525814  0.29326348    -0.18500
C201        C  0.15581612  0.66553681  0.32561185     0.03800
C202        C  0.16081160  0.70045258  0.33569370     0.18000
C203        C  0.17893147  0.72352819  0.31423837    -0.20000
C204        C  0.14842521  0.71202911  0.36758096    -0.21200
C205        C  0.13124557  0.68975260  0.38984041    -0.19800
C206        C  0.12582744  0.65523909  0.38084442     0.19400
C207        C  0.13797692  0.64252074  0.34859429     0.01500
C208        C  0.13164429  0.60739438  0.34093337    -0.14500
C209        C  0.11348183  0.58617702  0.36394965    -0.12200
C210        C  0.10113711  0.59898586  0.39549119     0.01100
C211        C  0.10790236  0.63351946  0.40386603    -0.24400
H212        H  0.19961089  0.66885682  0.24899115     0.09100
H213        H  0.16707115  0.62924262  0.28380275     0.12600
H214        H  0.18343358  0.74978140  0.32273360     0.11400
H215        H  0.15221747  0.73855203  0.37548730     0.12600
H216        H  0.12205288  0.69965963  0.41433042     0.11600
H217        H  0.14003807  0.59566800  0.31714800     0.08700
H218        H  0.10867468  0.55964275  0.35674224     0.11900
H219        H  0.09846373  0.64385167  0.42809550     0.13800
C220        C  0.09476985  0.38895664  0.39875255    -0.01700
C221        C  0.08172033  0.37806842  0.36672758    -0.09700
C222        C  0.09938071  0.35338307  0.34700468    -0.18500
C223        C  0.13145521  0.33980210  0.35825911     0.03800
C224        C  0.14510906  0.35211314  0.39016093     0.18000
C225        C  0.12614889  0.37539084  0.41057981    -0.20000
C226        C  0.17810370  0.34193898  0.40099823    -0.21200
C227        C  0.19858617  0.32132886  0.37997908    -0.19800
C228        C  0.18576340  0.30850111  0.34863610     0.19400
C229        C  0.15131594  0.31578360  0.33834229     0.05200
C230        C  0.13846620  0.29861375  0.30871891    -0.14500
C231        C  0.15988725  0.27716776  0.28886243    -0.12200
C232        C  0.19535404  0.27399642  0.29636679     0.01100
C233        C  0.20756549  0.28905575  0.32719671    -0.24400
H234        H  0.05740052  0.38824073  0.35722514     0.09100
H235        H  0.08805612  0.34622425  0.32250399     0.12600
H236        H  0.13641387  0.38398229  0.43523363     0.11400
H237        H  0.18873091  0.35119659  0.42522615     0.12600
H238        H  0.22463592  0.31524675  0.38838883     0.11600
H239        H  0.11182349  0.30098972  0.30069993     0.08700
H240        H  0.14888754  0.26427685  0.26661153     0.11900
H241        H  0.23452314  0.28715688  0.33431502     0.13800
C242        C  0.09600254  0.39386260  0.10591654    -0.01700
C243        C  0.10370132  0.36041767  0.09459299    -0.09700
C244        C  0.12162566  0.33722460  0.11572943    -0.18500
C245        C  0.13290288  0.34674745  0.14918517     0.03800
C246        C  0.12551361  0.38085705  0.16050657     0.18000
C247        C  0.10695794  0.40385956  0.13906501    -0.20000
C248        C  0.13702735  0.39189617  0.19302666    -0.21200
C249        C  0.15663086  0.37021836  0.21408626    -0.19800
C250        C  0.16445005  0.33656198  0.20364149     0.19400
C251        C  0.15186308  0.32396460  0.17148437     0.01500
C252        C  0.15920496  0.28924642  0.16295082    -0.14500
C253        C  0.17904016  0.26840001  0.18489848    -0.12200
C254        C  0.19237085  0.28120632  0.21600187     0.01100
C255        C  0.18530520  0.31559876  0.22493030    -0.24400
H256        H  0.09557443  0.35188878  0.06918499     0.09100
H257        H  0.12661852  0.31214039  0.10492418     0.12600
H258        H  0.10116844  0.42963363  0.14818154     0.11400
H259        H  0.13141433  0.41775840  0.20197368     0.12600
H260        H  0.16574837  0.37986251  0.23876946     0.11600
H261        H  0.15008392  0.27743762  0.13944252     0.08700
H262        H  0.18477926  0.24220764  0.17709223     0.11900
H263        H  0.19676235  0.32637859  0.24812466     0.13800
C264        C  0.90865804  0.39501251  0.10317761    -0.01700
C265        C  0.92468047  0.37626466  0.12968240    -0.09700
C266        C  0.90570462  0.35327458  0.15014291    -0.18500
C267        C  0.86976478  0.34868624  0.14489493     0.03800
C268        C  0.85374742  0.36815602  0.11799167     0.18000
C269        C  0.87331829  0.39060369  0.09720547    -0.20000
C270        C  0.81817449  0.36542405  0.11217460    -0.21200
C271        C  0.79791154  0.34435510  0.13288030    -0.19800
C272        C  0.81275795  0.32483877  0.15951599     0.19400
C273        C  0.84896083  0.32607125  0.16558526     0.01500
C274        C  0.86246960  0.30475384  0.19216905    -0.14500
C275        C  0.84073578  0.28398476  0.21237788    -0.12200
C276        C  0.80477803  0.28419519  0.20736007     0.01100
C277        C  0.79127281  0.30451526  0.18042848    -0.24400
H278        H  0.95214124  0.37920624  0.13436871     0.09100
H279        H  0.91974546  0.33976936  0.17009997     0.12600
H280        H  0.86096461  0.40504856  0.07656586     0.11400
H281        H  0.80580213  0.38013772  0.09176695     0.12600
H282        H  0.77032696  0.34334401  0.12801762     0.11600
H283        H  0.88972174  0.30358654  0.19792683     0.08700
H284        H  0.85206737  0.26821148  0.23254847     0.11900
H285        H  0.76364444  0.30571331  0.17622809     0.13800
C286        C  0.80863700  0.28836919  0.28622506    -0.01700
C287        C  0.81055582  0.32367291  0.27872629    -0.09700
C288        C  0.82949160  0.34605980  0.29975724    -0.18500
C289        C  0.84668664  0.33399223  0.32973921     0.03800
C290        C  0.84420359  0.29823987  0.33757692     0.18000
C291        C  0.82542445  0.27590593  0.31582522    -0.20000
C292        C  0.85982228  0.28511185  0.36750505    -0.21200
C293        C  0.87781202  0.30668417  0.38993226    -0.19800
C294        C  0.88104325  0.34191171  0.38283671     0.19400
C295        C  0.86574094  0.35610262  0.35251263     0.01500
C296        C  0.87049406  0.39172315  0.34622810    -0.14500
C297        C  0.88993674  0.41214233  0.36881148    -0.12200
C298        C  0.90500399  0.39801305  0.39858655     0.01100
C299        C  0.90003393  0.36292635  0.40565855    -0.24400
H300        H  0.79621078  0.33431769  0.25713305     0.09100
H301        H  0.82929943  0.37283697  0.29237483     0.12600
H302        H  0.82296953  0.24885437  0.32244072     0.11400
H303        H  0.85791641  0.25795029  0.37375390     0.12600
H304        H  0.88949827  0.29565982  0.41291992     0.11600
H305        H  0.86008609  0.40448408  0.32374500     0.08700
H306        H  0.89351089  0.43914558  0.36267972     0.11900
H307        H  0.91187846  0.35164727  0.42845332     0.13800
C308        C  0.90752532  0.59897001  0.39443429    -0.01700
C309        C  0.89484215  0.58543729  0.36330969    -0.09700
C310        C  0.87545410  0.60577399  0.34050049    -0.18500
C311        C  0.86814540  0.64072061  0.34797805     0.03800
C312        C  0.88099703  0.65435608  0.37964306     0.18000
C313        C  0.90016663  0.63344779  0.40254893    -0.20000
C314        C  0.87497391  0.68891439  0.38811079    -0.21200
C315        C  0.85658108  0.71033386  0.36579263    -0.19800
C316        C  0.84333804  0.69770295  0.33455873     0.19400
C317        C  0.84868382  0.66264679  0.32524675     0.01500
C318        C  0.83361789  0.65097149  0.29398852    -0.14500
C319        C  0.81366724  0.67297050  0.27334742    -0.12200
C320        C  0.80902998  0.70768081  0.28228155     0.01100
C321        C  0.82397022  0.71977089  0.31300531    -0.24400
H322        H  0.90024026  0.55896484  0.35628989     0.09100
H323        H  0.86699233  0.59349555  0.31699288     0.12600
H324        H  0.91002146  0.64432249  0.42643156     0.11400
H325        H  0.88470228  0.69953057  0.41215233     0.12600
H326        H  0.85242379  0.73694753  0.37318019     0.11600
H327        H  0.83574156  0.62467510  0.28536556     0.08700
H328        H  0.80072965  0.66233139  0.25091764     0.11900
H329        H  0.81943671  0.74624929  0.32072890     0.13800
C330        C  0.80238506  0.71294095  0.20262484    -0.01700
C331        C  0.78656586  0.69359011  0.17624505    -0.09700
C332        C  0.80581204  0.67279605  0.15409568    -0.18500
C333        C  0.84197304  0.66991199  0.15772602     0.03800
C334        C  0.85817071  0.68949899  0.18434535     0.18000
C335        C  0.83850278  0.71136712  0.20584089    -0.20000
C336        C  0.89376918  0.68629934  0.19002187    -0.21200
C337        C  0.91345279  0.66346152  0.17049826    -0.19800
C338        C  0.89828625  0.64394295  0.14405387     0.19400
C339        C  0.86247003  0.64755015  0.13659687     0.01500
C340        C  0.84887048  0.62863691  0.10828576    -0.14500
C341        C  0.86985027  0.60657889  0.08882805    -0.12200
C342        C  0.90470250  0.60220543  0.09728671     0.01100
C343        C  0.91881114  0.62096190  0.12483379    -0.24400
H344        H  0.75880157  0.69331091  0.17318647     0.09100
H345        H  0.79140707  0.65828609  0.13518636     0.12600
H346        H  0.85116832  0.72617365  0.22596915     0.11400
H347        H  0.90637223  0.70099142  0.21026715     0.12600
H348        H  0.94082194  0.66112805  0.17606711     0.11600
H349        H  0.82228091  0.63075337  0.10018750     0.08700
H350        H  0.85876298  0.59271748  0.06717045     0.11900
H351        H  0.94605614  0.61809123  0.13087774     0.13800
C352        C  0.71721465  0.19738242  0.29634061    -0.01700
C353        C  0.70228522  0.21080901  0.32666070    -0.09700
C354        C  0.68155677  0.19070198  0.34804185    -0.18500
C355        C  0.67346582  0.15638840  0.33945338     0.03800
C356        C  0.68771644  0.14274697  0.30852641     0.18000
C357        C  0.71079604  0.16255353  0.28844461    -0.20000
C358        C  0.67784563  0.10987846  0.29727545    -0.21200
C359        C  0.65382557  0.09057477  0.31584399    -0.19800
C360        C  0.64038918  0.10284961  0.34710967     0.19400
C361        C  0.65090154  0.13553826  0.35990709     0.01500
C362        C  0.63887820  0.14563698  0.39292375    -0.14500
C363        C  0.61709236  0.12433242  0.41218088    -0.12200
C364        C  0.60564043  0.09291308  0.39880482     0.01100
C365        C  0.61710185  0.08237135  0.36611411    -0.24400
H366        H  0.70518766  0.23747940  0.33376141     0.09100
H367        H  0.67065471  0.20346232  0.37029132     0.12600
H368        H  0.72251076  0.15115094  0.26577979     0.11400
H369        H  0.68806938  0.09939674  0.27344376     0.12600
H370        H  0.64619591  0.06555607  0.30600042     0.11600
H371        H  0.64682729  0.16937836  0.40508992     0.08700
H372        H  0.60899621  0.13250256  0.43766837     0.11900
H373        H  0.60898188  0.05752920  0.35612835     0.13800
C374        C  0.60552155  0.09807631  0.10188920    -0.01700
C375        C  0.63977510  0.10485017  0.09234474    -0.09700
C376        C  0.66169652  0.12420571  0.11368063    -0.18500
C377        C  0.65002067  0.13781001  0.14550688     0.03800
C378        C  0.61480788  0.13228658  0.15438155     0.18000
C379        C  0.59311761  0.11237433  0.13282274    -0.20000
C380        C  0.60150816  0.14649785  0.18485094    -0.21200
C381        C  0.62234460  0.16613707  0.20667460    -0.19800
C382        C  0.65729606  0.17141407  0.19910359     0.19400
C383        C  0.67184344  0.15685784  0.16870277     0.01500
C384        C  0.70760598  0.16194777  0.16298792    -0.14500
C385        C  0.72772852  0.18130413  0.18599265    -0.12200
C386        C  0.71316138  0.19613001  0.21548358     0.01100
C387        C  0.67774009  0.19143874  0.22163127    -0.24400
H388        H  0.65003335  0.09447763  0.06850583     0.09100
H389        H  0.68765891  0.12810850  0.10451289     0.12600
H390        H  0.56657247  0.10771643  0.14036335     0.11400
H391        H  0.57468140  0.14257724  0.19176517     0.12600
H392        H  0.61109719  0.17700798  0.22985806     0.11600
H393        H  0.72079925  0.15128869  0.14097154     0.08700
H394        H  0.75484763  0.18528767  0.18038565     0.11900
H395        H  0.66595287  0.20390432  0.24372727     0.13800
C396        C  0.28534887  0.19365685  0.20420647    -0.01700
C397        C  0.30400345  0.20954017  0.17749918    -0.09700
C398        C  0.32558240  0.19072138  0.15589678    -0.18500
C399        C  0.33014936  0.15498879  0.16051518     0.03800
C400        C  0.31168527  0.13869908  0.18773885     0.18000
C401        C  0.28873704  0.15783871  0.20853665    -0.20000
C402        C  0.31713667  0.10368145  0.19467201    -0.21200
C403        C  0.34114493  0.08479093  0.17571844    -0.19800
C404        C  0.35935732  0.10009938  0.14849686     0.19400
C405        C  0.35327769  0.13516468  0.13977551     0.01500
C406        C  0.37042547  0.14878397  0.11048229    -0.14500
C407        C  0.39331003  0.12865035  0.09130256    -0.12200
C408        C  0.40035486  0.09476600  0.10107091     0.01100
C409        C  0.38334370  0.08049471  0.12958709    -0.24400
H410        H  0.30322132  0.23710926  0.17371128     0.09100
H411        H  0.33951674  0.20526776  0.13676366     0.12600
H412        H  0.27451155  0.14506604  0.22893309     0.11400
H413        H  0.30338468  0.09102673  0.21546798     0.12600
H414        H  0.34531321  0.05793729  0.18223666     0.11600
H415        H  0.36608053  0.17460929  0.10120857     0.08700
H416        H  0.40563980  0.13961492  0.06872718     0.11900
H417        H  0.38811552  0.05379476  0.13642248     0.13800
C418        C  0.40169096  0.09278298  0.39622982    -0.01700
C419        C  0.41604306  0.10947464  0.36752507    -0.09700
C420        C  0.39530037  0.12844526  0.34458538    -0.18500
C421        C  0.35909606  0.13097844  0.34929500     0.03800
C422        C  0.34465519  0.11388181  0.37840758     0.18000
C423        C  0.36594723  0.09551327  0.40166154    -0.20000
C424        C  0.30892967  0.11482190  0.38395545    -0.21200
C425        C  0.28715852  0.13258252  0.36143364    -0.19800
C426        C  0.30049031  0.15024936  0.33288868     0.19400
C427        C  0.33666332  0.14970642  0.32629061     0.01500
C428        C  0.34871766  0.16847961  0.29734816    -0.14500
C429        C  0.32596465  0.18745095  0.27647576    -0.12200
C430        C  0.29036175  0.18795285  0.28315935     0.01100
C431        C  0.27787308  0.16921113  0.31142179    -0.24400
H432        H  0.44353320  0.10772083  0.36263744     0.09100
H433        H  0.40829885  0.14042261  0.32312918     0.12600
H434        H  0.35443361  0.08243461  0.42355062     0.11400
H435        H  0.29768631  0.10165885  0.40592226     0.12600
H436        H  0.25965508  0.13281382  0.36662552     0.11600
H437        H  0.37570442  0.16979638  0.29073037     0.08700
H438        H  0.33645702  0.20286672  0.25565649     0.11900
H439        H  0.25050592  0.17025127  0.31727897     0.13800
C440        C  0.71453196  0.80426573  0.21696726    -0.01700
C441        C  0.72923398  0.82154784  0.18896403    -0.09700
C442        C  0.70876679  0.84084180  0.16626711    -0.18500
C443        C  0.67253994  0.84314960  0.17073572     0.03800
C444        C  0.65788421  0.82648789  0.19995553     0.18000
C445        C  0.67878131  0.80682643  0.22234386    -0.20000
C446        C  0.62237912  0.82908823  0.20630649    -0.21200
C447        C  0.60109871  0.84826708  0.18446315    -0.19800
C448        C  0.61458165  0.86448350  0.15510780     0.19400
C449        C  0.65036668  0.86140770  0.14735403     0.01500
C450        C  0.66230020  0.87641353  0.11630637    -0.14500
C451        C  0.64004734  0.89506715  0.09481937    -0.12200
C452        C  0.60524950  0.89979207  0.10352252     0.01100
C453        C  0.59253911  0.88393124  0.13350259    -0.24400
H454        H  0.75669055  0.81924929  0.18405081     0.09100
H455        H  0.72204934  0.85349667  0.14540263     0.12600
H456        H  0.66705467  0.79247771  0.24329957     0.11400
H457        H  0.61103598  0.81649185  0.22855001     0.12600
H458        H  0.57382305  0.85019587  0.19042943     0.11600
H459        H  0.68867210  0.87410200  0.10781079     0.08700
H460        H  0.65049311  0.90664525  0.07161497     0.11900
H461        H  0.56551966  0.88692957  0.14018143     0.13800
C462        C  0.71733689  0.79745047  0.29655898    -0.01700
C463        C  0.69962883  0.78191319  0.32419458    -0.09700
C464        C  0.67821704  0.80090043  0.34599029    -0.18500
C465        C  0.67276009  0.83642969  0.34064713     0.03800
C466        C  0.69005899  0.85225648  0.31240087     0.18000
C467        C  0.71303706  0.83310721  0.29161349    -0.20000
C468        C  0.68364075  0.88691330  0.30457941    -0.21200
C469        C  0.66031344  0.90609247  0.32405634    -0.19800
C470        C  0.64372235  0.89151327  0.35267518     0.19400
C471        C  0.65025083  0.85663574  0.36188074     0.01500
C472        C  0.63437785  0.84375402  0.39224333    -0.14500
C473        C  0.61280792  0.86461169  0.41234766    -0.12200
C474        C  0.60568545  0.89849942  0.40243280     0.01100
C475        C  0.62101804  0.91177994  0.37250430    -0.24400
H476        H  0.70112530  0.75450374  0.32874776     0.09100
H477        H  0.66521900  0.78668008  0.36603184     0.12600
H478        H  0.72668139  0.84583825  0.27080834     0.11400
H479        H  0.69630667  0.89913350  0.28284569     0.12600
H480        H  0.65560278  0.93271499  0.31697873     0.11600
H481        H  0.63880030  0.81795898  0.40159433     0.08700
H482        H  0.60146059  0.85416200  0.43566984     0.11900
H483        H  0.61595851  0.93830420  0.36520006     0.13800
C484        C  0.39962154  0.89989219  0.40184383    -0.01700
C485        C  0.40733341  0.86519843  0.39607837    -0.09700
C486        C  0.38523480  0.84459715  0.37613384    -0.18500
C487        C  0.35502000  0.85849859  0.36063970     0.03800
C488        C  0.34843434  0.89423769  0.36516870     0.18000
C489        C  0.37016975  0.91428920  0.38636795    -0.20000
C490        C  0.32047557  0.90981446  0.34814037    -0.21200
C491        C  0.29908730  0.89072969  0.32634190    -0.19800
C492        C  0.30408071  0.85523947  0.32226609     0.19400
C493        C  0.33150279  0.83846226  0.34026770     0.01500
C494        C  0.33380050  0.80227773  0.33761157    -0.14500
C495        C  0.31078385  0.78377922  0.31693408    -0.12200
C496        C  0.28519606  0.80051635  0.29734748     0.01100
C497        C  0.28178681  0.83634803  0.30040211    -0.24400
H498        H  0.43033216  0.85388133  0.40741896     0.09100
H499        H  0.39286010  0.81810886  0.37261987     0.12600
H500        H  0.36462124  0.94140913  0.39027089     0.11400
H501        H  0.31549006  0.93712553  0.35119975     0.12600
H502        H  0.27813508  0.90374033  0.31300452     0.11600
H503        H  0.35282076  0.78747946  0.35164310     0.08700
H504        H  0.31393958  0.75618425  0.31549820     0.11900
H505        H  0.26177413  0.84945409  0.28575090     0.13800
C506        C  0.28784954  0.81133234  0.21957535    -0.01700
C507        C  0.32331410  0.81242449  0.22722917    -0.09700
C508        C  0.34614412  0.83167527  0.20698945    -0.18500
C509        C  0.33444591  0.84985950  0.17748204     0.03800
C510        C  0.29848117  0.84860333  0.16973213     0.18000
C511        C  0.27568235  0.82971399  0.19083559    -0.20000
C512        C  0.28562071  0.86521083  0.14024964    -0.21200
C513        C  0.30771703  0.88250770  0.11787849    -0.19800
C514        C  0.34324815  0.88415442  0.12461609     0.19400
C515        C  0.35714322  0.86833127  0.15479683     0.01500
C516        C  0.39311258  0.87170841  0.16078472    -0.14500
C517        C  0.41422459  0.88990838  0.13777869    -0.12200
C518        C  0.40045721  0.90505484  0.10783707     0.01100
C519        C  0.36490481  0.90183370  0.10139166    -0.24400
H520        H  0.33390432  0.79683826  0.24790112     0.09100
H521        H  0.37302425  0.83064648  0.21430119     0.12600
H522        H  0.24850989  0.82807185  0.18406470     0.11400
H523        H  0.25828495  0.86434569  0.13411717     0.12600
H524        H  0.29689249  0.89471033  0.09507194     0.11600
H525        H  0.40564352  0.86098020  0.18327347     0.08700
H526        H  0.44152878  0.89224581  0.14356768     0.11900
H527        H  0.35383208  0.91383663  0.07858382     0.13800
C528        C  0.29829348  0.69413685  0.28121462    -0.01700
C529        C  0.28186809  0.66882817  0.30068293    -0.09700
C530        C  0.30115405  0.64520944  0.31968987    -0.18500
C531        C  0.33767675  0.64697964  0.32035415     0.03800
C532        C  0.35409801  0.67290293  0.30025599     0.18000
C533        C  0.33431247  0.69582050  0.28047411    -0.20000
C534        C  0.39004856  0.67646875  0.30084526    -0.21200
C535        C  0.41014541  0.65541788  0.32187025    -0.19800
C536        C  0.39475360  0.63000494  0.34232602     0.19400
C537        C  0.35837876  0.62480934  0.34118505     0.01500
C538        C  0.34424548  0.59808884  0.36152890    -0.14500
C539        C  0.36513742  0.57854494  0.38332054    -0.12200
C540        C  0.40060266  0.58505667  0.38569896     0.01100
C541        C  0.41543609  0.61028254  0.36464483    -0.24400
H542        H  0.25395078  0.66743487  0.30136160     0.09100
H543        H  0.28661885  0.62659880  0.33426406     0.12600
H544        H  0.34680460  0.71596950  0.26562113     0.11400
H545        H  0.40263501  0.69619365  0.28555378     0.12600
H546        H  0.43787658  0.65929816  0.32243909     0.11600
H547        H  0.31715749  0.59180240  0.36154345     0.08700
H548        H  0.35316529  0.55901923  0.39931904     0.11900
H549        H  0.44300604  0.61507529  0.36619362     0.13800
C550        C  0.40403768  0.60108232  0.09734639    -0.01700
C551        C  0.41512261  0.63463347  0.10453340    -0.09700
C552        C  0.39619093  0.65577496  0.12650588    -0.18500
C553        C  0.36542408  0.64383218  0.14197826     0.03800
C554        C  0.35561918  0.60896089  0.13631361     0.18000
C555        C  0.37483479  0.58805221  0.11401312    -0.20000
C556        C  0.32634513  0.59534630  0.15240450    -0.21200
C557        C  0.30630475  0.61576360  0.17388679    -0.19800
C558        C  0.31463841  0.65043340  0.17903203     0.19400
C559        C  0.34399242  0.66521119  0.16273498     0.01500
C560        C  0.35006857  0.70091521  0.16726711    -0.14500
C561        C  0.32828274  0.72079597  0.18779739    -0.12200
C562        C  0.30049470  0.70554011  0.20472575     0.01100
C563        C  0.29360784  0.67054765  0.20027257    -0.24400
H564        H  0.43806106  0.64499277  0.09238975     0.09100
H565        H  0.40625159  0.68131334  0.13074110     0.12600
H566        H  0.36656092  0.56181260  0.10902798     0.11400
H567        H  0.31889289  0.56872687  0.14833447     0.12600
H568        H  0.28381890  0.60451451  0.18612794     0.11600
H569        H  0.37105872  0.71432032  0.15494309     0.08700
H570        H  0.33355238  0.74799859  0.19105350     0.11900
H571        H  0.27157822  0.65913373  0.21324767     0.13800
C572        C  0.59670682  0.58360169  0.38998532    -0.01700
C573        C  0.58064206  0.60676316  0.36744516    -0.09700
C574        C  0.60016837  0.62720193  0.34539709    -0.18500
C575        C  0.63666046  0.62557248  0.34585309     0.03800
C576        C  0.65273403  0.60031777  0.36716352     0.18000
C577        C  0.63263935  0.57943140  0.38882395    -0.20000
C578        C  0.68874858  0.59684678  0.36751009    -0.21200
C579        C  0.70927547  0.61852005  0.34765403    -0.19800
C580        C  0.69424804  0.64448306  0.32747206     0.19400
C581        C  0.65769548  0.64844386  0.32634781     0.01500
C582        C  0.64377437  0.67577563  0.30649569    -0.14500
C583        C  0.66518235  0.69750052  0.28774050    -0.12200
C584        C  0.70089817  0.69281273  0.28832642     0.01100
C585        C  0.71550815  0.66675573  0.30852517    -0.24400
H586        H  0.55279526  0.60970629  0.36743669     0.09100
H587        H  0.58587407  0.64435230  0.32877565     0.12600
H588        H  0.64514805  0.56119840  0.40606286     0.11400
H589        H  0.70113679  0.57746854  0.38351057     0.12600
H590        H  0.73709620  0.61534162  0.34853595     0.11600
H591        H  0.61655990  0.68135458  0.30513900     0.08700
H592        H  0.65383303  0.71818870  0.27265069     0.11900
H593        H  0.74335194  0.66356376  0.30901763     0.13800
C594        C  0.58592707  0.60197348  0.10157313    -0.01700
C595        C  0.60676172  0.58458820  0.12535845    -0.09700
C596        C  0.62703913  0.60267737  0.14871553    -0.18500
C597        C  0.62764872  0.63907236  0.14848691     0.03800
C598        C  0.60534240  0.65670890  0.12510112     0.18000
C599        C  0.58436991  0.63800968  0.10212279    -0.20000
C600        C  0.60496218  0.69277608  0.12410599    -0.21200
C601        C  0.62696931  0.71173930  0.14528112    -0.19800
C602        C  0.64982737  0.69502652  0.16786987     0.19400
C603        C  0.65022325  0.65844233  0.17006235     0.01500
C604        C  0.67386494  0.64272430  0.19316562    -0.14500
C605        C  0.69618251  0.66247628  0.21308214    -0.12200
C606        C  0.69556806  0.69832118  0.21083432     0.01100
C607        C  0.67263432  0.71459747  0.18810643    -0.24400
H608        H  0.60784436  0.55667697  0.12555579     0.09100
H609        H  0.64238846  0.58724462  0.16602511     0.12600
H610        H  0.56816630  0.65148462  0.08359974     0.11400
H611        H  0.58793390  0.70638329  0.10646178     0.12600
H612        H  0.62642707  0.73962749  0.14367473     0.11600
H613        H  0.67615283  0.61528763  0.19634151     0.08700
H614        H  0.71436645  0.64964417  0.23013980     0.11900
H615        H  0.67244002  0.74246354  0.18634887     0.13800
C616        C  0.70268064  0.30304896  0.29473235    -0.01700
C617        C  0.71694065  0.33149700  0.31132463    -0.09700
C618        C  0.69634626  0.35238925  0.33191611    -0.18500
C619        C  0.66090273  0.34480517  0.33671505     0.03800
C620        C  0.64717469  0.31470561  0.32092408     0.18000
C621        C  0.66800888  0.29450891  0.29953384    -0.20000
C622        C  0.61296889  0.30477325  0.32695001    -0.21200
C623        C  0.59215035  0.32389078  0.34898417    -0.19800
C624        C  0.60473596  0.35400307  0.36438288     0.19400
C625        C  0.63891735  0.36548476  0.35743182     0.01500
C626        C  0.64965762  0.39727796  0.37142711    -0.14500
C627        C  0.62829002  0.41564322  0.39345230    -0.12200
C628        C  0.59563753  0.40299315  0.40225934     0.01100
C629        C  0.58355951  0.37260677  0.38704185    -0.24400
H630        H  0.74397076  0.33779795  0.30798725     0.09100
H631        H  0.70911409  0.37375837  0.34430056     0.12600
H632        H  0.65751140  0.27182648  0.28692003     0.11400
H633        H  0.60250161  0.28170254  0.31512341     0.12600
H634        H  0.56601433  0.31517289  0.35388325     0.11600
H635        H  0.67433617  0.40877651  0.36574084     0.08700
H636        H  0.63784621  0.43956286  0.40427006     0.11900
H637        H  0.55793321  0.36317748  0.39321033     0.13800
C638        C  0.69717278  0.30447990  0.21795378    -0.01700
C639        C  0.70411973  0.33973170  0.21665047    -0.09700
C640        C  0.68239004  0.36186670  0.19831870    -0.18500
C641        C  0.65283412  0.34912845  0.18088193     0.03800
C642        C  0.64531033  0.31332342  0.18374404     0.18000
C643        C  0.66771274  0.29134091  0.20187758    -0.20000
C644        C  0.61574476  0.29959826  0.16812020    -0.21200
C645        C  0.59400494  0.32044507  0.14856558    -0.19800
C646        C  0.60163241  0.35537284  0.14375697     0.19400
C647        C  0.63093686  0.37037661  0.16011158     0.01500
C648        C  0.63773514  0.40566607  0.15383182    -0.14500
C649        C  0.61727817  0.42469843  0.13096937    -0.12200
C650        C  0.58911225  0.40945603  0.11421827     0.01100
C651        C  0.58081049  0.37508273  0.12154257    -0.24400
H652        H  0.72675104  0.35006422  0.22955933     0.09100
H653        H  0.68947387  0.38869576  0.19826574     0.12600
H654        H  0.66221969  0.26400088  0.20364770     0.11400
H655        H  0.60965566  0.27244764  0.17064019     0.12600
H656        H  0.57158187  0.30894335  0.13630885     0.11600
H657        H  0.65929309  0.41905655  0.16525304     0.08700
H658        H  0.62399158  0.45130724  0.12583689     0.11900
H659        H  0.55901851  0.36306959  0.10862850     0.13800
C660        C  0.30249723  0.29544045  0.28963025    -0.01700
C661        C  0.29492100  0.33048613  0.29155587    -0.09700
C662        C  0.31587699  0.35242085  0.31072796    -0.18500
C663        C  0.34529269  0.33965724  0.32840898     0.03800
C664        C  0.35272932  0.30380335  0.32610517     0.18000
C665        C  0.33114610  0.28202227  0.30692890    -0.20000
C666        C  0.38147232  0.28989204  0.34311960    -0.21200
C667        C  0.40259448  0.31071257  0.36329333    -0.19800
C668        C  0.39544824  0.34587889  0.36680904     0.19400
C669        C  0.36708315  0.36101635  0.34890591     0.01500
C670        C  0.36128512  0.39675533  0.35298299    -0.14500
C671        C  0.38133093  0.41606027  0.37570556    -0.12200
C672        C  0.40802047  0.40058806  0.39455591     0.01100
C673        C  0.41581324  0.36582178  0.38911977    -0.24400
H674        H  0.27258235  0.34087463  0.27813150     0.09100
H675        H  0.30820517  0.37906044  0.31122108     0.12600
H676        H  0.33681797  0.25474535  0.30506662     0.11400
H677        H  0.38735768  0.26264829  0.34121397     0.12600
H678        H  0.42431697  0.29911704  0.37671961     0.11600
H679        H  0.34105152  0.41048469  0.33969262     0.08700
H680        H  0.37531789  0.44311562  0.37915632     0.11900
H681        H  0.43667811  0.35382624  0.40354070     0.13800
C682        C  0.39879367  0.41256161  0.10913041    -0.01700
C683        C  0.36369427  0.41998799  0.11333627    -0.09700
C684        C  0.34322938  0.39977657  0.13491102    -0.18500
C685        C  0.35744979  0.37139170  0.15300366     0.03800
C686        C  0.39362484  0.36553846  0.15039146     0.18000
C687        C  0.41383969  0.38601758  0.12852208    -0.20000
C688        C  0.40927003  0.33867043  0.16882571    -0.21200
C689        C  0.38959642  0.31690534  0.18936077    -0.19800
C690        C  0.35376741  0.32114696  0.19142547     0.19400
C691        C  0.33707484  0.34833129  0.17313594     0.01500
C692        C  0.30060965  0.35055695  0.17496036    -0.14500
C693        C  0.28166374  0.32684434  0.19419953    -0.12200
C694        C  0.29843054  0.30082940  0.21261759     0.01100
C695        C  0.33438621  0.29800821  0.21129562    -0.24400
H696        H  0.35164036  0.44069772  0.09887054     0.09100
H697        H  0.31635480  0.40679048  0.13651582     0.12600
H698        H  0.44118653  0.38058427  0.12578766     0.11400
H699        H  0.43687309  0.33427283  0.16711014     0.12600
H700        H  0.40240772  0.29620339  0.20320727     0.11600
H701        H  0.28590431  0.36987140  0.16135618     0.08700
H702        H  0.25377898  0.32904096  0.19500659     0.11900
H703        H  0.34712858  0.27733400  0.22530158     0.13800
N704        N  0.55941943  0.46223934  0.54590258    -0.06500
N705        N  0.58179064  0.45714967  0.57126528    -0.58600
N706        N  0.53906210  0.43250071  0.96704589    -0.06200
N707        N  0.54593217  0.40925288  0.94309724    -0.60800
N708        N  0.56281994  0.45665883  0.96714407    -0.05800
N709        N  0.58620677  0.45065791  0.94338941    -0.58600
N710        N  0.53575367  0.43795121  0.54598137    -0.05500
N711        N  0.54142857  0.41591034  0.57130580    -0.61100
C712        C  0.57004547  0.42829442  0.58706547     0.95700
C713        C  0.57539122  0.42116312  0.92851534     0.95400
N714        N  0.43397631  0.45619809  0.96129693    -0.06700
N715        N  0.41296927  0.44964310  0.93529276    -0.59200
N716        N  0.45523158  0.43830969  0.54288592    -0.04800
N717        N  0.44861825  0.41757958  0.56903451    -0.60500
N718        N  0.43125501  0.46218168  0.54025181    -0.06700
N719        N  0.40759928  0.45801415  0.56436108    -0.59500
N720        N  0.45789772  0.43226906  0.96380124    -0.04500
N721        N  0.45350690  0.40865246  0.93968205    -0.60600
Mn722      Mn  0.49692979  0.43403327  0.50492302     1.18400
C723        C  0.42551481  0.42001712  0.92199322     0.97700
C724        C  0.41895051  0.43027348  0.58230562     0.98400
N725        N  0.56320433  0.53601540  0.95966400    -0.06800
N726        N  0.58756450  0.53975556  0.93619294    -0.63100
N727        N  0.53580092  0.56787534  0.53371257    -0.05600
N728        N  0.54088782  0.59308870  0.55604491    -0.63700
N729        N  0.55885343  0.54336958  0.53813507    -0.06300
N730        N  0.58002228  0.55115142  0.56360211    -0.63300
N731        N  0.53875386  0.55914068  0.95523062    -0.05200
N732        N  0.54583199  0.57904790  0.92858632    -0.64000
Mn733      Mn  0.56210397  0.49959561  0.50305594     1.10700
C734        C  0.57620889  0.56650049  0.91683754     0.99000
C735        C  0.56841736  0.58206125  0.57461200     0.99000
N736        N  0.43182394  0.54297323  0.53331479    -0.06300
N737        N  0.40976923  0.55040628  0.55813013    -0.61600
N738        N  0.45731903  0.55933613  0.95213272    -0.05600
N739        N  0.45089089  0.58007430  0.92582232    -0.58400
N740        N  0.43313566  0.53572277  0.95456713    -0.06900
N741        N  0.40976690  0.53980539  0.93009250    -0.61200
N742        N  0.45558458  0.56704030  0.53096682    -0.05900
N743        N  0.45034465  0.59131753  0.55412085    -0.58400
Mn744      Mn  0.43138613  0.49924620  0.99749418     1.20200
Mn745      Mn  0.49684098  0.56448840  0.99264506     1.10100
Cl746      Cl  0.49682026  0.49934494  0.49958730    -0.86400
C747        C  0.42179583  0.58056307  0.57094378     0.96000
C748        C  0.42127114  0.56735230  0.91219381     0.95800
N749        N  0.43786312  0.95952130  0.54425454    -0.06500
N750        N  0.41231988  0.93893432  0.55367287    -0.58600
N751        N  0.46225797  0.03801197  0.56641758    -0.06200
N752        N  0.45330253  0.05949586  0.59133884    -0.60800
N753        N  0.43872077  0.03808126  0.54169893    -0.05800
N754        N  0.41362935  0.05987656  0.54916544    -0.58600
N755        N  0.46226003  0.95962696  0.56812148    -0.05500
N756        N  0.45377891  0.93901496  0.59396290    -0.61100
C757        C  0.42268536  0.92599842  0.58457632     0.95700
C758        C  0.42329074  0.07333809  0.57988304     0.95400
N759        N  0.56908041  0.03794622  0.54269335    -0.06700
N760        N  0.59391891  0.06009898  0.55040088    -0.59200
N761        N  0.54496942  0.95916246  0.56807287    -0.04800
N762        N  0.55293823  0.93687290  0.59276972    -0.60500
N763        N  0.56886894  0.95898650  0.54393685    -0.06700
N764        N  0.59347924  0.93671641  0.55178839    -0.59500
N765        N  0.54508457  0.03840724  0.56676181    -0.04500
N766        N  0.55317818  0.06098279  0.59112281    -0.60600
Mn767      Mn  0.50370320  0.99879309  0.56792567     1.18400
C768        C  0.58360659  0.07460789  0.58053383     0.97700
C769        C  0.58317538  0.92282056  0.58214094     0.98400
N770        N  0.43807555  0.03618297  0.95889391    -0.06800
N771        N  0.41303096  0.05763663  0.94981952    -0.63100
N772        N  0.46178840  0.95652355  0.93725986    -0.05600
N773        N  0.45317685  0.93415885  0.91289459    -0.63700
N774        N  0.43763468  0.95766227  0.96117592    -0.06300
N775        N  0.41209269  0.93645064  0.95329593    -0.63300
N776        N  0.46227592  0.03563851  0.93502101    -0.05200
N777        N  0.45419423  0.05693298  0.90951193    -0.64000
Mn778      Mn  0.43759503  0.99787433  0.50150279     1.10700
C779        C  0.42351557  0.07073359  0.91911021     0.99000
C780        C  0.42238683  0.92150354  0.92350889     0.99000
N781        N  0.56871957  0.95697452  0.96160903    -0.06300
N782        N  0.59358498  0.93479150  0.95419887    -0.61600
N783        N  0.54523469  0.03483017  0.93495786    -0.05600
N784        N  0.55396259  0.05550377  0.90922113    -0.58400
N785        N  0.56870938  0.03603674  0.95970267    -0.06900
N786        N  0.59347126  0.05797677  0.95148279    -0.61200
N787        N  0.54482244  0.95657388  0.93725094    -0.05900
N788        N  0.55327729  0.93450570  0.91266473    -0.58400
Mn789      Mn  0.56939695  0.99756962  0.50200641     1.20200
Mn790      Mn  0.50350030  0.99584655  0.93557206     1.10100
Cl791      Cl  0.50354678  0.99754169  0.50174346    -0.86400
C792        C  0.58338031  0.92066115  0.92386965     0.96000
C793        C  0.58381719  0.07010764  0.92011485     0.95800
N794        N  0.96364129  0.56416917  0.53931750    -0.06500
N795        N  0.94123411  0.58898460  0.54609853    -0.58600
N796        N  0.04201011  0.54105391  0.56588455    -0.06200
N797        N  0.06218921  0.55087065  0.59174345    -0.60800
N798        N  0.04268554  0.56417872  0.54089146    -0.05800
N799        N  0.06358104  0.58980951  0.54919434    -0.58600
N800        N  0.96339142  0.54088810  0.56417492    -0.05500
N801        N  0.94107185  0.54974812  0.58843123    -0.61100
C802        C  0.92700760  0.57942633  0.57650208     0.95700
C803        C  0.07596178  0.58093961  0.58065545     0.95400
N804        N  0.04216381  0.43364972  0.54310801    -0.06700
N805        N  0.06252406  0.40786624  0.55224578    -0.59200
N806        N  0.96350535  0.45774871  0.56617149    -0.04800
N807        N  0.94266637  0.44860951  0.59164238    -0.60500
N808        N  0.96345388  0.43394713  0.54188218    -0.06700
N809        N  0.94240260  0.40848527  0.55024904    -0.59500
N810        N  0.04215737  0.45763531  0.56724348    -0.04500
N811        N  0.06251603  0.44833151  0.59324037    -0.60600
Mn812      Mn  0.00281627  0.49940817  0.56645045     1.18400
C813        C  0.07534737  0.41732074  0.58340484     0.97700
C814        C  0.92920775  0.41818027  0.58102674     0.98400
N815        N  0.04414965  0.56286016  0.95774583    -0.06800
N816        N  0.06551514  0.58791149  0.94874814    -0.63100
N817        N  0.96528910  0.53914577  0.93315988    -0.05600
N818        N  0.94370285  0.54694247  0.90778005    -0.63700
N819        N  0.96515546  0.56358876  0.95672696    -0.06300
N820        N  0.94359895  0.58851880  0.94767362    -0.63300
N821        N  0.04440222  0.53826816  0.93424029    -0.05200
N822        N  0.06598220  0.54621752  0.90901595    -0.64000
Mn823      Mn  0.00398152  0.56419225  0.49871679     1.10700
C824        C  0.07929265  0.57712125  0.91843915     0.99000
C825        C  0.93010367  0.57769207  0.91719659     0.99000
N826        N  0.96396010  0.43332106  0.95928092    -0.06300
N827        N  0.94171648  0.40874670  0.95116180    -0.61600
N828        N  0.04273803  0.45486966  0.93494518    -0.05600
N829        N  0.06221821  0.44397843  0.90907344    -0.58400
N830        N  0.04288313  0.43198968  0.96015323    -0.06900
N831        N  0.06292105  0.40558800  0.95211754    -0.61200
N832        N  0.96419885  0.45721518  0.93509627    -0.05900
N833        N  0.94203318  0.44945798  0.91028238    -0.58400
Mn834      Mn  0.00318770  0.43292171  0.50110479     1.20200
Mn835      Mn  0.00429628  0.49740938  0.93392471     1.10100
Cl836      Cl  0.00372495  0.49849044  0.50008438    -0.86400
C837        C  0.92795396  0.41929909  0.92068362     0.96000
C838        C  0.07511317  0.41351556  0.92040136     0.95800
C839        C  0.25210759  0.25151478  0.71709143     0.45100
H840        H  0.24996771  0.25447528  0.68860648    -0.04000
C841        C  0.25681092  0.24572437  0.78362442     0.45100
H842        H  0.25975239  0.24283899  0.81200095    -0.04000
C843        C  0.27816992  0.27627617  0.73324631    -0.17700
C844        C  0.21818083  0.26019880  0.73576651    -0.17400
C845        C  0.26505586  0.21563901  0.72883556    -0.17800
C846        C  0.28079799  0.27306934  0.76829730    -0.17800
C847        C  0.22037235  0.25739404  0.77144440    -0.17300
C848        C  0.26715825  0.21258887  0.76440352    -0.17700
C849        C  0.74400817  0.25509036  0.71931204     0.45100
H850        H  0.74060029  0.25457609  0.69080209    -0.04000
C851        C  0.75042336  0.25610318  0.78595909     0.45100
H852        H  0.75375577  0.25731568  0.81442795    -0.04000
C853        C  0.72053192  0.28141382  0.73702212    -0.17700
C854        C  0.73406973  0.22071178  0.73654901    -0.17400
C855        C  0.78068475  0.26543539  0.73137284    -0.17800
C856        C  0.72405687  0.28191428  0.77208427    -0.17800
C857        C  0.73669686  0.22117384  0.77231391    -0.17300
C858        C  0.78387615  0.26591152  0.76697673    -0.17700
C859        C  0.25406475  0.75384633  0.71576415     0.45100
H860        H  0.25528666  0.75831648  0.68741821    -0.04000
C861        C  0.25203634  0.74350610  0.78189790     0.45100
H862        H  0.25151140  0.73882302  0.81024737    -0.04000
C863        C  0.27898824  0.72584838  0.72824466    -0.17700
C864        C  0.26488823  0.78567004  0.73695046    -0.17400
C865        C  0.21841356  0.74088578  0.72841955    -0.17800
C866        C  0.27754926  0.72009761  0.76301131    -0.17800
C867        C  0.26397725  0.78016359  0.77221703    -0.17300
C868        C  0.21740272  0.73584655  0.76384503    -0.17700
C869        C  0.74423372  0.74512402  0.71660119     0.45100
H870        H  0.74133212  0.74787271  0.68813917    -0.04000
C871        C  0.75000710  0.73909493  0.78301527     0.45100
H872        H  0.75274650  0.73594820  0.81142317    -0.04000
C873        C  0.71950110  0.71869420  0.73214792    -0.17700
C874        C  0.78020687  0.73221297  0.72796415    -0.17400
C875        C  0.73555195  0.77845327  0.73615098    -0.17800
C876        C  0.72288058  0.71519708  0.76720087    -0.17800
C877        C  0.78334486  0.72960366  0.76351381    -0.17300
C878        C  0.73757734  0.77531635  0.77173471    -0.17700
C879        C  0.19459865  0.72282048  0.70365942    -0.01700
C880        C  0.15876198  0.72165013  0.70874855    -0.09700
C881        C  0.13780203  0.69992418  0.68861498    -0.18500
C882        C  0.15218103  0.67856524  0.66261119     0.03800
C883        C  0.18816511  0.68153541  0.65627118     0.18000
C884        C  0.20864177  0.70361900  0.67633973    -0.20000
C885        C  0.20393489  0.66167701  0.63056583    -0.21200
C886        C  0.18476004  0.63854957  0.61100732    -0.19800
C887        C  0.14939040  0.63436389  0.61689825     0.19400
C888        C  0.13250206  0.65412979  0.64290865     0.01500
C889        C  0.09687480  0.64801447  0.64834528    -0.14500
C890        C  0.07892447  0.62355379  0.62864860    -0.12200
C891        C  0.09570736  0.60479026  0.60278930     0.01100
C892        C  0.13083728  0.61035045  0.59692138    -0.24400
H893        H  0.14707612  0.73673736  0.72914836     0.09100
H894        H  0.11057957  0.69996150  0.69436377     0.12600
H895        H  0.23608112  0.70433658  0.67145844     0.11400
H896        H  0.23142561  0.66385130  0.62571715     0.12600
H897        H  0.19780032  0.62352061  0.59136521     0.11600
H898        H  0.08226906  0.66157543  0.66771714     0.08700
H899        H  0.05159443  0.61966593  0.63322870     0.11900
H900        H  0.14375711  0.59581368  0.57680597     0.13800
C901        C  0.19263889  0.71282750  0.78255830    -0.01700
C902        C  0.18780883  0.67840522  0.77244243    -0.09700
C903        C  0.16939708  0.65525813  0.79326346    -0.18500
C904        C  0.15581612  0.66553680  0.82561184     0.03800
C905        C  0.16081164  0.70045256  0.83569370     0.18000
C906        C  0.17893152  0.72352814  0.81423838    -0.20000
C907        C  0.14842523  0.71202908  0.86758096    -0.21200
C908        C  0.13124553  0.68975260  0.88984042    -0.19800
C909        C  0.12582740  0.65523908  0.88084438     0.19400
C910        C  0.13797690  0.64252073  0.84859427     0.01500
C911        C  0.13164426  0.60739437  0.84093332    -0.14500
C912        C  0.11348178  0.58617700  0.86394959    -0.12200
C913        C  0.10113706  0.59898585  0.89549113     0.01100
C914        C  0.10790229  0.63351946  0.90386600    -0.24400
H915        H  0.19961087  0.66885683  0.74899113     0.09100
H916        H  0.16707112  0.62924262  0.78380271     0.12600
H917        H  0.18343366  0.74978139  0.82273364     0.11400
H918        H  0.15221751  0.73855202  0.87548732     0.12600
H919        H  0.12205285  0.69965961  0.91433035     0.11600
H920        H  0.14003805  0.59566800  0.81714797     0.08700
H921        H  0.10867465  0.55964278  0.85674219     0.11900
H922        H  0.09846368  0.64385164  0.92809541     0.13800
C923        C  0.09476982  0.38895658  0.89875257    -0.01700
C924        C  0.08172032  0.37806839  0.86672757    -0.09700
C925        C  0.09938071  0.35338305  0.84700469    -0.18500
C926        C  0.13145519  0.33980205  0.85825911     0.03800
C927        C  0.14510904  0.35211307  0.89016095     0.18000
C928        C  0.12614884  0.37539075  0.91057980    -0.20000
C929        C  0.17810367  0.34193893  0.90099822    -0.21200
C930        C  0.19858618  0.32132883  0.87997907    -0.19800
C931        C  0.18576338  0.30850108  0.84863609     0.19400
C932        C  0.15131592  0.31578355  0.83834229     0.05200
C933        C  0.13846613  0.29861370  0.80871891    -0.14500
C934        C  0.15988722  0.27716772  0.78886244    -0.12200
C935        C  0.19535401  0.27399640  0.79636678     0.01100
C936        C  0.20756550  0.28905573  0.82719670    -0.24400
H937        H  0.05740054  0.38824072  0.85722512     0.09100
H938        H  0.08805611  0.34622423  0.82250392     0.12600
H939        H  0.13641384  0.38398221  0.93523370     0.11400
H940        H  0.18873090  0.35119655  0.92522616     0.12600
H941        H  0.22463589  0.31524675  0.88838879     0.11600
H942        H  0.11182350  0.30098965  0.80069997     0.08700
H943        H  0.14888751  0.26427680  0.76661152     0.11900
H944        H  0.23452308  0.28715690  0.83431498     0.13800
C945        C  0.09600260  0.39386263  0.60591650    -0.01700
C946        C  0.10370129  0.36041766  0.59459296    -0.09700
C947        C  0.12162561  0.33722460  0.61572945    -0.18500
C948        C  0.13290289  0.34674747  0.64918516     0.03800
C949        C  0.12551369  0.38085709  0.66050654     0.18000
C950        C  0.10695804  0.40385963  0.63906495    -0.20000
C951        C  0.13702744  0.39189623  0.69302661    -0.21200
C952        C  0.15663094  0.37021843  0.71408630    -0.19800
C953        C  0.16445006  0.33656200  0.70364149     0.19400
C954        C  0.15186308  0.32396462  0.67148438     0.01500
C955        C  0.15920495  0.28924645  0.66295085    -0.14500
C956        C  0.17904013  0.26840002  0.68489848    -0.12200
C957        C  0.19237082  0.28120633  0.71600186     0.01100
C958        C  0.18530520  0.31559878  0.72493034    -0.24400
H959        H  0.09557439  0.35188878  0.56918506     0.09100
H960        H  0.12661839  0.31214033  0.60492422     0.12600
H961        H  0.10116860  0.42963367  0.64818145     0.11400
H962        H  0.13141446  0.41775849  0.70197362     0.12600
H963        H  0.16574840  0.37986252  0.73876933     0.11600
H964        H  0.15008390  0.27743763  0.63944249     0.08700
H965        H  0.18477923  0.24220765  0.67709223     0.11900
H966        H  0.19676232  0.32637856  0.74812461     0.13800
C967        C  0.90865809  0.39501247  0.60317759    -0.01700
C968        C  0.92468054  0.37626462  0.62968239    -0.09700
C969        C  0.90570467  0.35327454  0.65014287    -0.18500
C970        C  0.86976485  0.34868618  0.64489491     0.03800
C971        C  0.85374747  0.36815596  0.61799165     0.18000
C972        C  0.87331834  0.39060363  0.59720545    -0.20000
C973        C  0.81817454  0.36542400  0.61217458    -0.21200
C974        C  0.79791161  0.34435505  0.63288029    -0.19800
C975        C  0.81275801  0.32483873  0.65951598     0.19400
C976        C  0.84896089  0.32607120  0.66558525     0.01500
C977        C  0.86246971  0.30475379  0.69216906    -0.14500
C978        C  0.84073583  0.28398472  0.71237787    -0.12200
C979        C  0.80477808  0.28419515  0.70736006     0.01100
C980        C  0.79127291  0.30451522  0.68042848    -0.24400
H981        H  0.95214125  0.37920620  0.63436868     0.09100
H982        H  0.91974554  0.33976928  0.67009996     0.12600
H983        H  0.86096465  0.40504851  0.57656585     0.11400
H984        H  0.80580218  0.38013766  0.59176694     0.12600
H985        H  0.77032699  0.34334396  0.62801761     0.11600
H986        H  0.88972173  0.30358650  0.69792682     0.08700
H987        H  0.85206742  0.26821142  0.73254849     0.11900
H988        H  0.76364443  0.30571329  0.67622808     0.13800
C989        C  0.80863703  0.28836916  0.78622503    -0.01700
C990        C  0.81055580  0.32367289  0.77872624    -0.09700
C991        C  0.82949158  0.34605980  0.79975721    -0.18500
C992        C  0.84668664  0.33399222  0.82973917     0.03800
C993        C  0.84420362  0.29823985  0.83757689     0.18000
C994        C  0.82542448  0.27590590  0.81582518    -0.20000
C995        C  0.85982232  0.28511183  0.86750501    -0.21200
C996        C  0.87781206  0.30668416  0.88993225    -0.19800
C997        C  0.88104325  0.34191171  0.88283666     0.19400
C998        C  0.86574094  0.35610262  0.85251259     0.01500
C999        C  0.87049402  0.39172319  0.84622794    -0.14500
C1000       C  0.88993676  0.41214232  0.86881141    -0.12200
C1001       C  0.90500399  0.39801306  0.89858649     0.01100
C1002       C  0.90003393  0.36292635  0.90565852    -0.24400
H1003       H  0.79621077  0.33431764  0.75713305     0.09100
H1004       H  0.82929937  0.37283690  0.79237481     0.12600
H1005       H  0.82296958  0.24885435  0.82244068     0.11400
H1006       H  0.85791648  0.25795028  0.87375385     0.12600
H1007       H  0.88949830  0.29565984  0.91291985     0.11600
H1008       H  0.86008618  0.40448400  0.82374507     0.08700
H1009       H  0.89351092  0.43914560  0.86267963     0.11900
H1010       H  0.91187844  0.35164730  0.92845326     0.13800
C1011       C  0.90752525  0.59896996  0.89443436    -0.01700
C1012       C  0.89484202  0.58543722  0.86330979    -0.09700
C1013       C  0.87545399  0.60577392  0.84050059    -0.18500
C1014       C  0.86814535  0.64072057  0.84797811     0.03800
C1015       C  0.88099700  0.65435604  0.87964310     0.18000
C1016       C  0.90016657  0.63344773  0.90254893    -0.20000
C1017       C  0.87497394  0.68891437  0.88811079    -0.21200
C1018       C  0.85658115  0.71033384  0.86579261    -0.19800
C1019       C  0.84333809  0.69770294  0.83455873     0.19400
C1020       C  0.84868382  0.66264675  0.82524679     0.01500
C1021       C  0.83361786  0.65097147  0.79398858    -0.14500
C1022       C  0.81366724  0.67297046  0.77334747    -0.12200
C1023       C  0.80903000  0.70768078  0.78228156     0.01100
C1024       C  0.82397029  0.71977081  0.81300528    -0.24400
H1025       H  0.90024010  0.55896475  0.85629001     0.09100
H1026       H  0.86699217  0.59349546  0.81699299     0.12600
H1027       H  0.91002147  0.64432249  0.92643166     0.11400
H1028       H  0.88470233  0.69953055  0.91215234     0.12600
H1029       H  0.85242390  0.73694756  0.87318015     0.11600
H1030       H  0.83574152  0.62467501  0.78536562     0.08700
H1031       H  0.80072962  0.66233133  0.75091767     0.11900
H1032       H  0.81943680  0.74624937  0.82072889     0.13800
C1033       C  0.80238505  0.71294090  0.70262485    -0.01700
C1034       C  0.78656590  0.69359008  0.67624506    -0.09700
C1035       C  0.80581203  0.67279601  0.65409568    -0.18500
C1036       C  0.84197301  0.66991191  0.65772605     0.03800
C1037       C  0.85817070  0.68949889  0.68434539     0.18000
C1038       C  0.83850279  0.71136707  0.70584094    -0.20000
C1039       C  0.89376916  0.68629922  0.69002197    -0.21200
C1040       C  0.91345281  0.66346133  0.67049838    -0.19800
C1041       C  0.89828619  0.64394279  0.64405396     0.19400
C1042       C  0.86247001  0.64755004  0.63659690     0.01500
C1043       C  0.84887038  0.62863685  0.60828575    -0.14500
C1044       C  0.86985025  0.60657881  0.58882804    -0.12200
C1045       C  0.90470245  0.60220532  0.59728676     0.01100
C1046       C  0.91881116  0.62096172  0.62483391    -0.24400
H1047       H  0.75880150  0.69331092  0.67318645     0.09100
H1048       H  0.79140705  0.65828608  0.63518637     0.12600
H1049       H  0.85116829  0.72617354  0.72596914     0.11400
H1050       H  0.90637217  0.70099124  0.71026720     0.12600
H1051       H  0.94082179  0.66112785  0.67606724     0.11600
H1052       H  0.82228102  0.63075332  0.60018751     0.08700
H1053       H  0.85876297  0.59271746  0.56717043     0.11900
H1054       H  0.94605595  0.61809103  0.63087784     0.13800
C1055       C  0.71721467  0.19738240  0.79634059    -0.01700
C1056       C  0.70228525  0.21080900  0.82666069    -0.09700
C1057       C  0.68155679  0.19070198  0.84804185    -0.18500
C1058       C  0.67346582  0.15638839  0.83945336     0.03800
C1059       C  0.68771644  0.14274695  0.80852638     0.18000
C1060       C  0.71079605  0.16255352  0.78844458    -0.20000
C1061       C  0.67784563  0.10987846  0.79727544    -0.21200
C1062       C  0.65382555  0.09057468  0.81584393    -0.19800
C1063       C  0.64038918  0.10284961  0.84710963     0.19400
C1064       C  0.65090153  0.13553824  0.85990705     0.01500
C1065       C  0.63887818  0.14563702  0.89292372    -0.14500
C1066       C  0.61709232  0.12433242  0.91218083    -0.12200
C1067       C  0.60564041  0.09291307  0.89880477     0.01100
C1068       C  0.61710181  0.08237125  0.86611403    -0.24400
H1069       H  0.70518771  0.23747937  0.83376141     0.09100
H1070       H  0.67065477  0.20346230  0.87029128     0.12600
H1071       H  0.72251075  0.15115094  0.76577977     0.11400
H1072       H  0.68806940  0.09939672  0.77344369     0.12600
H1073       H  0.64619596  0.06555616  0.80600042     0.11600
H1074       H  0.64682721  0.16937830  0.90508984     0.08700
H1075       H  0.60899615  0.13250256  0.93766829     0.11900
H1076       H  0.60898191  0.05752930  0.85612835     0.13800
C1077       C  0.60552152  0.09807630  0.60188924    -0.01700
C1078       C  0.63977505  0.10485014  0.59234487    -0.09700
C1079       C  0.66169657  0.12420566  0.61368066    -0.18500
C1080       C  0.65002066  0.13781001  0.64550690     0.03800
C1081       C  0.61480786  0.13228663  0.65438155     0.18000
C1082       C  0.59311752  0.11237436  0.63282277    -0.20000
C1083       C  0.60150813  0.14649798  0.68485089    -0.21200
C1084       C  0.62234457  0.16613722  0.70667455    -0.19800
C1085       C  0.65729607  0.17141414  0.69910355     0.19400
C1086       C  0.67184345  0.15685785  0.66870277     0.01500
C1087       C  0.70760601  0.16194770  0.66298791    -0.14500
C1088       C  0.72772855  0.18130407  0.68599265    -0.12200
C1089       C  0.71316141  0.19613000  0.71548355     0.01100
C1090       C  0.67774010  0.19143879  0.72163122    -0.24400
H1091       H  0.65003338  0.09447749  0.56850581     0.09100
H1092       H  0.68765884  0.12810838  0.60451296     0.12600
H1093       H  0.56657251  0.10771652  0.64036334     0.11400
H1094       H  0.57468137  0.14257743  0.69176511     0.12600
H1095       H  0.61109717  0.17700816  0.72985794     0.11600
H1096       H  0.72079925  0.15128862  0.64097162     0.08700
H1097       H  0.75484767  0.18528758  0.68038566     0.11900
H1098       H  0.66595289  0.20390441  0.74372720     0.13800
C1099       C  0.28534886  0.19365685  0.70420648    -0.01700
C1100       C  0.30400342  0.20954016  0.67749918    -0.09700
C1101       C  0.32558239  0.19072136  0.65589678    -0.18500
C1102       C  0.33014936  0.15498878  0.66051521     0.03800
C1103       C  0.31168531  0.13869908  0.68773891     0.18000
C1104       C  0.28873706  0.15783872  0.70853669    -0.20000
C1105       C  0.31713674  0.10368147  0.69467210    -0.21200
C1106       C  0.34114501  0.08479087  0.67571856    -0.19800
C1107       C  0.35935735  0.10009937  0.64849693     0.19400
C1108       C  0.35327769  0.13516464  0.63977555     0.01500
C1109       C  0.37042542  0.14878392  0.61048229    -0.14500
C1110       C  0.39330995  0.12865029  0.59130254    -0.12200
C1111       C  0.40035482  0.09476596  0.60107092     0.01100
C1112       C  0.38334371  0.08049467  0.62958715    -0.24400
H1113       H  0.30322128  0.23710925  0.67371125     0.09100
H1114       H  0.33951670  0.20526773  0.63676366     0.12600
H1115       H  0.27451158  0.14506605  0.72893314     0.11400
H1116       H  0.30338475  0.09102674  0.71546812     0.12600
H1117       H  0.34531328  0.05793739  0.68223677     0.11600
H1118       H  0.36608046  0.17460923  0.60120855     0.08700
H1119       H  0.40563967  0.13961485  0.56872712     0.11900
H1120       H  0.38811555  0.05379479  0.63642254     0.13800
C1121       C  0.40169096  0.09278301  0.89622981    -0.01700
C1122       C  0.41604301  0.10947467  0.86752506    -0.09700
C1123       C  0.39530038  0.12844532  0.84458539    -0.18500
C1124       C  0.35909606  0.13097851  0.84929502     0.03800
C1125       C  0.34465520  0.11388186  0.87840758     0.18000
C1126       C  0.36594724  0.09551333  0.90166153    -0.20000
C1127       C  0.30892965  0.11482189  0.88395547    -0.21200
C1128       C  0.28715860  0.13258253  0.86143360    -0.19800
C1129       C  0.30049033  0.15024940  0.83288868     0.19400
C1130       C  0.33666335  0.14970650  0.82629063     0.01500
C1131       C  0.34871770  0.16847972  0.79734820    -0.14500
C1132       C  0.32596465  0.18745102  0.77647582    -0.12200
C1133       C  0.29036175  0.18795290  0.78315936     0.01100
C1134       C  0.27787310  0.16921116  0.81142178    -0.24400
H1135       H  0.44353327  0.10772084  0.86263740     0.09100
H1136       H  0.40829886  0.14042266  0.82312919     0.12600
H1137       H  0.35443361  0.08243465  0.92355063     0.11400
H1138       H  0.29768635  0.10165890  0.90592215     0.12600
H1139       H  0.25965499  0.13281380  0.86662548     0.11600
H1140       H  0.37570443  0.16979654  0.79073044     0.08700
H1141       H  0.33645705  0.20286686  0.75565649     0.11900
H1142       H  0.25050591  0.17025128  0.81727896     0.13800
C1143       C  0.71453201  0.80426572  0.71696727    -0.01700
C1144       C  0.72923403  0.82154783  0.68896403    -0.09700
C1145       C  0.70876684  0.84084179  0.66626712    -0.18500
C1146       C  0.67253999  0.84314961  0.67073573     0.03800
C1147       C  0.65788426  0.82648788  0.69995554     0.18000
C1148       C  0.67878136  0.80682643  0.72234385    -0.20000
C1149       C  0.62237918  0.82908821  0.70630648    -0.21200
C1150       C  0.60109880  0.84826705  0.68446315    -0.19800
C1151       C  0.61458169  0.86448349  0.65510782     0.19400
C1152       C  0.65036673  0.86140771  0.64735404     0.01500
C1153       C  0.66230023  0.87641355  0.61630639    -0.14500
C1154       C  0.64004737  0.89506717  0.59481938    -0.12200
C1155       C  0.60524952  0.89979208  0.60352255     0.01100
C1156       C  0.59253914  0.88393123  0.63350262    -0.24400
H1157       H  0.75669060  0.81924927  0.68405081     0.09100
H1158       H  0.72204939  0.85349667  0.64540263     0.12600
H1159       H  0.66705471  0.79247770  0.74329958     0.11400
H1160       H  0.61103603  0.81649180  0.72855001     0.12600
H1161       H  0.57382305  0.85019583  0.69042945     0.11600
H1162       H  0.68867214  0.87410204  0.60781081     0.08700
H1163       H  0.65049312  0.90664525  0.57161502     0.11900
H1164       H  0.56551970  0.88692955  0.64018146     0.13800
C1165       C  0.71733688  0.79745045  0.79655899    -0.01700
C1166       C  0.69962876  0.78191319  0.82419454    -0.09700
C1167       C  0.67821692  0.80090038  0.84599029    -0.18500
C1168       C  0.67276009  0.83642970  0.84064711     0.03800
C1169       C  0.69005902  0.85225649  0.81240088     0.18000
C1170       C  0.71303710  0.83310721  0.79161351    -0.20000
C1171       C  0.68364085  0.88691333  0.80457944    -0.21200
C1172       C  0.66031354  0.90609259  0.82405634    -0.19800
C1173       C  0.64372243  0.89151332  0.85267518     0.19400
C1174       C  0.65025084  0.85663578  0.86188073     0.01500
C1175       C  0.63437784  0.84375402  0.89224331    -0.14500
C1176       C  0.61280791  0.86461173  0.91234763    -0.12200
C1177       C  0.60568548  0.89849948  0.90243277     0.01100
C1178       C  0.62101812  0.91178001  0.87250430    -0.24400
H1179       H  0.70112520  0.75450369  0.82874770     0.09100
H1180       H  0.66521894  0.78668013  0.86603164     0.12600
H1181       H  0.72668145  0.84583824  0.77080839     0.11400
H1182       H  0.69630682  0.89913355  0.78284571     0.12600
H1183       H  0.65560296  0.93271496  0.81697879     0.11600
H1184       H  0.63880024  0.81795908  0.90159428     0.08700
H1185       H  0.60146055  0.85416205  0.93566978     0.11900
H1186       H  0.61595864  0.93830427  0.86520009     0.13800
C1187       C  0.39962156  0.89989216  0.90184388    -0.01700
C1188       C  0.40733347  0.86519836  0.89607850    -0.09700
C1189       C  0.38523481  0.84459710  0.87613395    -0.18500
C1190       C  0.35502004  0.85849853  0.86063975     0.03800
C1191       C  0.34843440  0.89423765  0.86516871     0.18000
C1192       C  0.37016981  0.91428915  0.88636795    -0.20000
C1193       C  0.32047564  0.90981442  0.84814035    -0.21200
C1194       C  0.29908738  0.89072964  0.82634188    -0.19800
C1195       C  0.30408078  0.85523942  0.82226609     0.19400
C1196       C  0.33150285  0.83846221  0.84026773     0.01500
C1197       C  0.33380054  0.80227769  0.83761158    -0.14500
C1198       C  0.31078390  0.78377917  0.81693409    -0.12200
C1199       C  0.28519611  0.80051630  0.79734750     0.01100
C1200       C  0.28178688  0.83634799  0.80040212    -0.24400
H1201       H  0.43033207  0.85388132  0.90741908     0.09100
H1202       H  0.39286010  0.81810875  0.87262002     0.12600
H1203       H  0.36462129  0.94140911  0.89027086     0.11400
H1204       H  0.31549014  0.93712549  0.85119970     0.12600
H1205       H  0.27813517  0.90374028  0.81300448     0.11600
H1206       H  0.35282085  0.78747939  0.85164315     0.08700
H1207       H  0.31393962  0.75618420  0.81549822     0.11900
H1208       H  0.26177420  0.84945405  0.78575090     0.13800
C1209       C  0.28784958  0.81133232  0.71957539    -0.01700
C1210       C  0.32331416  0.81242444  0.72722922    -0.09700
C1211       C  0.34614413  0.83167523  0.70698945    -0.18500
C1212       C  0.33444594  0.84985948  0.67748207     0.03800
C1213       C  0.29848119  0.84860333  0.66973217     0.18000
C1214       C  0.27568242  0.82971401  0.69083567    -0.20000
C1215       C  0.28562077  0.86521082  0.64024969    -0.21200
C1216       C  0.30771700  0.88250771  0.61787844    -0.19800
C1217       C  0.34324816  0.88415440  0.62461610     0.19400
C1218       C  0.35714322  0.86833125  0.65479683     0.01500
C1219       C  0.39311260  0.87170837  0.66078472    -0.14500
C1220       C  0.41422459  0.88990834  0.63777867    -0.12200
C1221       C  0.40045721  0.90505480  0.60783707     0.01100
C1222       C  0.36490480  0.90183369  0.60139164    -0.24400
H1223       H  0.33390433  0.79683824  0.74790109     0.09100
H1224       H  0.37302433  0.83064643  0.71430120     0.12600
H1225       H  0.24850983  0.82807187  0.68406475     0.11400
H1226       H  0.25828487  0.86434568  0.63411720     0.12600
H1227       H  0.29689253  0.89471026  0.59507206     0.11600
H1228       H  0.40564354  0.86098016  0.68327346     0.08700
H1229       H  0.44152881  0.89224575  0.64356766     0.11900
H1230       H  0.35383209  0.91383660  0.57858387     0.13800
C1231       C  0.29829348  0.69413683  0.78121459    -0.01700
C1232       C  0.28186808  0.66882815  0.80068290    -0.09700
C1233       C  0.30115404  0.64520943  0.81968983    -0.18500
C1234       C  0.33767673  0.64697962  0.82035414     0.03800
C1235       C  0.35409799  0.67290291  0.80025598     0.18000
C1236       C  0.33431247  0.69582047  0.78047409    -0.20000
C1237       C  0.39004854  0.67646875  0.80084528    -0.21200
C1238       C  0.41014533  0.65541787  0.82187028    -0.19800
C1239       C  0.39475356  0.63000493  0.84232604     0.19400
C1240       C  0.35837872  0.62480933  0.84118504     0.01500
C1241       C  0.34424542  0.59808882  0.86152890    -0.14500
C1242       C  0.36513740  0.57854499  0.88332049    -0.12200
C1243       C  0.40060261  0.58505667  0.88569897     0.01100
C1244       C  0.41543607  0.61028254  0.86464484    -0.24400
H1245       H  0.25395077  0.66743485  0.80136157     0.09100
H1246       H  0.28661881  0.62659875  0.83426406     0.12600
H1247       H  0.34680460  0.71596947  0.76562111     0.11400
H1248       H  0.40263498  0.69619363  0.78555382     0.12600
H1249       H  0.43787661  0.65929817  0.82243914     0.11600
H1250       H  0.31715747  0.59180240  0.86154343     0.08700
H1251       H  0.35316520  0.55901916  0.89931910     0.11900
H1252       H  0.44300597  0.61507529  0.86619364     0.13800
C1253       C  0.40403765  0.60108229  0.59734636    -0.01700
C1254       C  0.41512266  0.63463344  0.60453339    -0.09700
C1255       C  0.39619095  0.65577492  0.62650590    -0.18500
C1256       C  0.36542407  0.64383216  0.64197824     0.03800
C1257       C  0.35561912  0.60896088  0.63631355     0.18000
C1258       C  0.37483474  0.58805221  0.61401306    -0.20000
C1259       C  0.32634502  0.59534631  0.65240437    -0.21200
C1260       C  0.30630462  0.61576360  0.67388669    -0.19800
C1261       C  0.31463838  0.65043340  0.67903198     0.19400
C1262       C  0.34399240  0.66521117  0.66273497     0.01500
C1263       C  0.35006864  0.70091519  0.66726712    -0.14500
C1264       C  0.32828279  0.72079594  0.68779742    -0.12200
C1265       C  0.30049471  0.70554010  0.70472574     0.01100
C1266       C  0.29360776  0.67054762  0.70027257    -0.24400
H1267       H  0.43806104  0.64499268  0.59238982     0.09100
H1268       H  0.40625165  0.68131327  0.63074116     0.12600
H1269       H  0.36656083  0.56181260  0.60902788     0.11400
H1270       H  0.31889274  0.56872692  0.64833429     0.12600
H1271       H  0.28381881  0.60451457  0.68612774     0.11600
H1272       H  0.37105874  0.71432025  0.65494319     0.08700
H1273       H  0.33355246  0.74799856  0.69105356     0.11900
H1274       H  0.27157826  0.65913379  0.71324756     0.13800
C1275       C  0.59670678  0.58360167  0.88998528    -0.01700
C1276       C  0.58064194  0.60676314  0.86744511    -0.09700
C1277       C  0.60016834  0.62720190  0.84539705    -0.18500
C1278       C  0.63666042  0.62557245  0.84585305     0.03800
C1279       C  0.65273401  0.60031775  0.86716349     0.18000
C1280       C  0.63263930  0.57943139  0.88882391    -0.20000
C1281       C  0.68874854  0.59684677  0.86751006    -0.21200
C1282       C  0.70927551  0.61852002  0.84765402    -0.19800
C1283       C  0.69424802  0.64448303  0.82747205     0.19400
C1284       C  0.65769547  0.64844382  0.82634778     0.01500
C1285       C  0.64377428  0.67577561  0.80649565    -0.14500
C1286       C  0.66518235  0.69750049  0.78774050    -0.12200
C1287       C  0.70089816  0.69281272  0.78832644     0.01100
C1288       C  0.71550815  0.66675571  0.80852518    -0.24400
H1289       H  0.55279533  0.60970625  0.86743664     0.09100
H1290       H  0.58587404  0.64435226  0.82877560     0.12600
H1291       H  0.64514802  0.56119836  0.90606285     0.11400
H1292       H  0.70113679  0.57746848  0.88351059     0.12600
H1293       H  0.73709609  0.61534160  0.84853595     0.11600
H1294       H  0.61655999  0.68135453  0.80513895     0.08700
H1295       H  0.65383303  0.71818871  0.77265067     0.11900
H1296       H  0.74335190  0.66356375  0.80901765     0.13800
C1297       C  0.58592704  0.60197347  0.60157322    -0.01700
C1298       C  0.60676165  0.58458818  0.62535858    -0.09700
C1299       C  0.62703899  0.60267740  0.64871561    -0.18500
C1300       C  0.62764867  0.63907234  0.64848704     0.03800
C1301       C  0.60534234  0.65670890  0.62510125     0.18000
C1302       C  0.58436994  0.63800963  0.60212296    -0.20000
C1303       C  0.60496210  0.69277608  0.62410615    -0.21200
C1304       C  0.62696923  0.71173928  0.64528127    -0.19800
C1305       C  0.64982734  0.69502649  0.66786998     0.19400
C1306       C  0.65022322  0.65844231  0.67006244     0.01500
C1307       C  0.67386496  0.64272429  0.69316568    -0.14500
C1308       C  0.69618254  0.66247625  0.71308217    -0.12200
C1309       C  0.69556809  0.69832115  0.71083436     0.01100
C1310       C  0.67263431  0.71459744  0.68810651    -0.24400
H1311       H  0.60784427  0.55667697  0.62555592     0.09100
H1312       H  0.64238844  0.58724454  0.66602539     0.12600
H1313       H  0.56816621  0.65148469  0.58359973     0.11400
H1314       H  0.58793381  0.70638328  0.60646195     0.12600
H1315       H  0.62642699  0.73962750  0.64367490     0.11600
H1316       H  0.67615286  0.61528753  0.69634153     0.08700
H1317       H  0.71436653  0.64964413  0.73013981     0.11900
H1318       H  0.67244001  0.74246352  0.68634896     0.13800
C1319       C  0.70268067  0.30304892  0.79473234    -0.01700
C1320       C  0.71694072  0.33149691  0.81132468    -0.09700
C1321       C  0.69634631  0.35238911  0.83191616    -0.18500
C1322       C  0.66090279  0.34480509  0.83671509     0.03800
C1323       C  0.64717472  0.31470558  0.82092406     0.18000
C1324       C  0.66800889  0.29450886  0.79953378    -0.20000
C1325       C  0.61296890  0.30477326  0.82694994    -0.21200
C1326       C  0.59215042  0.32389082  0.84898410    -0.19800
C1327       C  0.60473600  0.35400305  0.86438287     0.19400
C1328       C  0.63891742  0.36548468  0.85743188     0.01500
C1329       C  0.64965771  0.39727783  0.87142726    -0.14500
C1330       C  0.62829012  0.41564305  0.89345244    -0.12200
C1331       C  0.59563759  0.40299308  0.90225941     0.01100
C1332       C  0.58355956  0.37260675  0.88704184    -0.24400
H1333       H  0.74397079  0.33779783  0.80798733     0.09100
H1334       H  0.70911420  0.37375828  0.84430072     0.12600
H1335       H  0.65751142  0.27182654  0.78691997     0.11400
H1336       H  0.60250160  0.28170261  0.81512332     0.12600
H1337       H  0.56601425  0.31517293  0.85388316     0.11600
H1338       H  0.67433634  0.40877635  0.86574104     0.08700
H1339       H  0.63784637  0.43956273  0.90427030     0.11900
H1340       H  0.55793319  0.36317749  0.89321026     0.13800
C1341       C  0.69717278  0.30447987  0.71795378    -0.01700
C1342       C  0.70411970  0.33973167  0.71665050    -0.09700
C1343       C  0.68238999  0.36186668  0.69831877    -0.18500
C1344       C  0.65283409  0.34912842  0.68088198     0.03800
C1345       C  0.64531030  0.31332338  0.68374407     0.18000
C1346       C  0.66771272  0.29134085  0.70187759    -0.20000
C1347       C  0.61574474  0.29959821  0.66812023    -0.21200
C1348       C  0.59400491  0.32044504  0.64856559    -0.19800
C1349       C  0.60163241  0.35537281  0.64375699     0.19400
C1350       C  0.63093684  0.37037658  0.66011161     0.01500
C1351       C  0.63773516  0.40566604  0.65383184    -0.14500
C1352       C  0.61727820  0.42469839  0.63096937    -0.12200
C1353       C  0.58911228  0.40945600  0.61421827     0.01100
C1354       C  0.58081051  0.37508271  0.62154257    -0.24400
H1355       H  0.72675102  0.35006420  0.72955938     0.09100
H1356       H  0.68947380  0.38869573  0.69826584     0.12600
H1357       H  0.66221970  0.26400088  0.70364771     0.11400
H1358       H  0.60965564  0.27244763  0.67064021     0.12600
H1359       H  0.57158187  0.30894333  0.63630886     0.11600
H1360       H  0.65929309  0.41905651  0.66525304     0.08700
H1361       H  0.62399162  0.45130719  0.62583687     0.11900
H1362       H  0.55901853  0.36306957  0.60862849     0.13800
C1363       C  0.30249718  0.29544049  0.78963023    -0.01700
C1364       C  0.29492090  0.33048617  0.79155589    -0.09700
C1365       C  0.31587686  0.35242092  0.81072801    -0.18500
C1366       C  0.34529257  0.33965730  0.82840902     0.03800
C1367       C  0.35272924  0.30380341  0.82610517     0.18000
C1368       C  0.33114604  0.28202241  0.80692887    -0.20000
C1369       C  0.38147222  0.28989212  0.84311962    -0.21200
C1370       C  0.40259431  0.31071264  0.86329336    -0.19800
C1371       C  0.39544810  0.34587893  0.86680911     0.19400
C1372       C  0.36708301  0.36101639  0.84890597     0.01500
C1373       C  0.36128494  0.39675540  0.85298304    -0.14500
C1374       C  0.38133079  0.41606032  0.87570560    -0.12200
C1375       C  0.40802035  0.40058811  0.89455595     0.01100
C1376       C  0.41581304  0.36582185  0.88911979    -0.24400
H1377       H  0.27258224  0.34087466  0.77813152     0.09100
H1378       H  0.30820502  0.37906042  0.81122115     0.12600
H1379       H  0.33681798  0.25474531  0.80506655     0.11400
H1380       H  0.38735762  0.26264832  0.84121395     0.12600
H1381       H  0.42431691  0.29911705  0.87671971     0.11600
H1382       H  0.34105143  0.41048471  0.83969274     0.08700
H1383       H  0.37531777  0.44311569  0.87915636     0.11900
H1384       H  0.43667805  0.35382624  0.90354082     0.13800
C1385       C  0.39879367  0.41256157  0.60913035    -0.01700
C1386       C  0.36369428  0.41998790  0.61333618    -0.09700
C1387       C  0.34322934  0.39977652  0.63491091    -0.18500
C1388       C  0.35744978  0.37139167  0.65300359     0.03800
C1389       C  0.39362483  0.36553845  0.65039143     0.18000
C1390       C  0.41383972  0.38601756  0.62852205    -0.20000
C1391       C  0.40927004  0.33867046  0.66882573    -0.21200
C1392       C  0.38959639  0.31690542  0.68936081    -0.19800
C1393       C  0.35376739  0.32114700  0.69142548     0.19400
C1394       C  0.33707481  0.34833128  0.67313587     0.01500
C1395       C  0.30060959  0.35055692  0.67496020    -0.14500
C1396       C  0.28166363  0.32684430  0.69419941    -0.12200
C1397       C  0.29843050  0.30082943  0.71261756     0.01100
C1398       C  0.33438618  0.29800828  0.71129566    -0.24400
H1399       H  0.35164034  0.44069768  0.59887038     0.09100
H1400       H  0.31635483  0.40679041  0.63651567     0.12600
H1401       H  0.44118650  0.38058429  0.62578767     0.11400
H1402       H  0.43687306  0.33427289  0.66711019     0.12600
H1403       H  0.40240773  0.29620347  0.70320739     0.11600
H1404       H  0.28590429  0.36987124  0.66135599     0.08700
H1405       H  0.25377903  0.32904087  0.69500640     0.11900
H1406       H  0.34712857  0.27733412  0.72530169     0.13800
loop_ 
_geom_bond_atom_site_label_1 
_geom_bond_atom_site_label_2 
_geom_bond_distance 
_geom_bond_site_symmetry_2 
_ccdc_geom_bond_type 
N1            N2   1.321       .  A
N1            N7   1.315       .  A
N1          Mn30   2.204       .  S
N2            C9   1.355       .  A
N3            N5   1.313       .  A
N3            N4   1.321       .  A
N3         Mn722   2.197       .  S
N4           C10   1.355       .  A
N5            N6   1.313       .  A
N5         Mn733   2.170       .  S
N6           C10   1.348       .  A
N7            N8   1.318       .  A
N7          Mn19   2.188       .  S
N8            C9   1.351       .  A
C9          C650   1.475       .  S
C10         C628   1.466       .  S
N11          N17   1.314       .  A
N11          N12   1.316       .  A
N11         Mn41   2.183       .  S
N12          C20   1.350       .  A
N13          N14   1.318       .  A
N13          N15   1.314       .  A
N13         Mn19   2.192       .  S
N14          C21   1.352       .  A
N15          N16   1.319       .  A
N15        Mn744   2.191   1_554  S
N16          C21   1.353       .  A
N17          N18   1.319       .  A
N17        Mn722   2.191       .  S
N18          C20   1.353       .  A
Mn19        N706   2.197   1_554  S
Mn19        N720   2.191   1_554  S
Mn19        Cl43   2.543   1_554  S
C20         C672   1.466       .  S
C21         C682   1.471       .  S
N22          N23   1.319       .  A
N22          N28   1.314       .  A
N22        Mn733   2.194       .  S
N23          C31   1.352       .  A
N24          N26   1.314       .  A
N24          N25   1.320       .  A
N24        Mn745   2.191   1_554  S
N25          C32   1.352       .  A
N26          N27   1.315       .  A
N26         Mn30   2.179       .  S
N27          C32   1.350       .  A
N28          N29   1.317       .  A
N28         Mn42   2.188       .  S
N29          C31   1.352       .  A
Mn30        N708   2.170   1_554  S
Mn30        N725   2.194   1_554  S
Mn30        Cl43   2.529   1_554  S
C31         C572   1.468       .  S
C32         C594   1.463       .  S
N33          N34   1.319       .  A
N33          N39   1.314       .  A
N33        Mn744   2.192   1_554  S
N34          C44   1.353       .  A
N35          N36   1.320       .  A
N35          N37   1.314       .  A
N35         Mn42   2.195       .  S
N36          C45   1.354       .  A
N37          N38   1.316       .  A
N37         Mn41   2.183       .  S
N38          C45   1.350       .  A
N39          N40   1.317       .  A
N39        Mn745   2.185   1_554  S
N40          C44   1.350       .  A
Mn41        N718   2.191       .  S
Mn41        N736   2.192       .  S
Mn41       Cl746   2.533       .  S
Mn42        N727   2.191       .  S
Mn42        N742   2.185       .  S
Mn42       Cl746   2.542       .  S
Cl43       Mn744   2.533       .  S
Cl43       Mn745   2.542       .  S
C44         C550   1.468       .  S
C45         C540   1.468       .  S
N46          N47   1.323       .  A
N46          N52   1.318       .  A
N46         Mn75   2.224       .  S
N47          C54   1.356       .  A
N48          N50   1.318       .  A
N48          N49   1.322       .  A
N48         Mn64   2.211   1_545  S
N49          C55   1.352       .  A
N50          N51   1.320       .  A
N50         Mn75   2.204   1_545  S
N51          C55   1.350       .  A
N52          N53   1.322       .  A
N52         Mn64   2.210       .  S
N53          C54   1.354       .  A
C54         C518   1.489       .  S
C55         C408   1.468       .  S
N56          N62   1.317       .  A
N56          N57   1.323       .  A
N56         Mn86   2.222   1_545  S
N57          C65   1.356       .  A
N58          N59   1.324       .  A
N58          N60   1.317       .  A
N58         Mn64   2.216       .  S
N59          C66   1.356       .  A
N60          N61   1.320       .  A
N60         Mn86   2.207       .  S
N61          C66   1.353       .  A
N62          N63   1.324       .  A
N62         Mn64   2.221   1_545  S
N63          C65   1.356       .  A
Mn64        Cl88   2.561       .  S
C65         C374   1.493       .  S
C66         C452   1.485       .  S
N67          N68   1.323       .  A
N67          N73   1.318       .  A
N67        Mn778   2.219   1_545  S
N68          C76   1.356       .  A
N69          N71   1.318       .  A
N69          N70   1.324       .  A
N69         Mn87   2.223       .  S
N70          C77   1.354       .  A
N71          N72   1.322       .  A
N71        Mn778   2.207       .  S
N72          C77   1.352       .  A
N73          N74   1.323       .  A
N73         Mn87   2.219   1_545  S
N74          C76   1.355       .  A
Mn75        N770   2.219   1_564  S
Mn75        N774   2.207   1_554  S
Mn75        Cl88   2.552       .  S
C76         C418   1.491       .  S
C77         C484   1.476       .  S
N78          N79   1.323       .  A
N78          N84   1.318       .  A
N78        Mn789   2.220       .  S
N79          C89   1.353       .  A
N80          N81   1.323       .  A
N80          N82   1.318       .  A
N80         Mn87   2.214   1_545  S
N81          C90   1.353       .  A
N82          N83   1.322       .  A
N82        Mn789   2.214   1_545  S
N83          C90   1.353       .  A
N84          N85   1.322       .  A
N84         Mn87   2.209       .  S
N85          C89   1.352       .  A
Mn86        N781   2.220   1_554  S
Mn86        N785   2.214   1_564  S
Mn86        Cl88   2.548       .  S
Mn87       Cl791   2.561       .  S
Cl88       Mn790   2.561   1_554  S
C89         C474   1.476       .  S
C90         C364   1.477       .  S
N91          N92   1.322       .  A
N91          N97   1.319       .  A
N91        Mn120   2.218   1_654  S
N92          C99   1.352       .  A
N93          N95   1.319       .  A
N93          N94   1.323       .  A
N93        Mn109   2.217       .  S
N94         C100   1.353       .  A
N95          N96   1.321       .  A
N95        Mn120   2.211   1_554  S
N96         C100   1.351       .  A
N97          N98   1.323       .  A
N97        Mn109   2.218   1_655  S
N98          C99   1.354       .  A
C99         C342   1.476       .  S
C100        C188   1.473       .  S
N101        N107   1.319       .  A
N101        N102   1.320       .  A
N101       Mn131   2.213       .  S
N102        C110   1.353       .  A
N103        N104   1.324       .  A
N103        N105   1.318       .  A
N103       Mn109   2.221   1_655  S
N104        C111   1.354       .  A
N105        N106   1.322       .  A
N105       Mn131   2.207   1_655  S
N106        C111   1.351       .  A
N107        N108   1.325       .  A
N107       Mn109   2.223       .  S
N108        C110   1.357       .  A
Mn109      Cl133   2.568       .  S
C110        C242   1.490       .  S
C111        C264   1.476       .  S
N112        N113   1.324       .  A
N112        N118   1.319       .  A
N112       Mn823   2.225       .  S
N113        C121   1.356       .  A
N114        N116   1.316       .  A
N114        N115   1.322       .  A
N114       Mn132   2.213   1_655  S
N115        C122   1.354       .  A
N116        N117   1.323       .  A
N116       Mn823   2.209   1_655  S
N117        C122   1.355       .  A
N118        N119   1.323       .  A
N118       Mn132   2.219       .  S
N119        C121   1.355       .  A
Mn120       N815   2.225       .  S
Mn120       N819   2.209   1_455  S
Mn120      Cl133   2.550   1_556  S
C121        C210   1.493       .  S
C122        C308   1.488       .  S
N123        N124   1.322       .  A
N123        N129   1.317       .  A
N123       Mn834   2.215   1_655  S
N124        C134   1.355       .  A
N125        N126   1.324       .  A
N125        N127   1.318       .  A
N125       Mn132   2.222       .  S
N126        C135   1.355       .  A
N127        N128   1.322       .  A
N127       Mn834   2.211       .  S
N128        C135   1.352       .  A
N129        N130   1.320       .  A
N129       Mn132   2.201   1_655  S
N130        C134   1.353       .  A
Mn131       N826   2.215   1_454  S
Mn131       N830   2.211   1_554  S
Mn131      Cl133   2.545       .  S
Mn132      Cl836   2.560       .  S
Cl133      Mn835   2.560   1_554  S
C134        C298   1.483       .  S
C135        C220   1.481       .  S
C136        H137   1.111       .  S
C136        C142   1.547       .  S
C136        C141   1.538       .  S
C136        C140   1.526       .  S
C138        H139   1.109       .  S
C138        C144   1.552       .  S
C138        C143   1.531       .  S
C138        C145   1.539       .  S
C140        C143   1.365       .  D
C140        C694   1.471       .  S
C141        C144   1.387       .  D
C141        C254   1.496       .  S
C142        C145   1.383       .  D
C142        C396   1.503       .  S
C143        C660   1.462       .  S
C144        C232   1.513       .  S
C145        C430   1.497       .  S
C146        H147   1.111       .  S
C146        C152   1.546       .  S
C146        C151   1.541       .  S
C146        C150   1.530       .  S
C148        H149   1.110       .  S
C148        C154   1.549       .  S
C148        C153   1.525       .  S
C148        C155   1.539       .  S
C150        C153   1.363       .  D
C150        C638   1.468       .  S
C151        C154   1.387       .  D
C151        C386   1.492       .  S
C152        C155   1.383       .  D
C152        C276   1.506       .  S
C153        C616   1.459       .  S
C154        C352   1.513       .  S
C155        C286   1.493       .  S
C156        H157   1.111       .  S
C156        C162   1.550       .  S
C156        C161   1.540       .  S
C156        C160   1.529       .  S
C158        H159   1.112       .  S
C158        C164   1.542       .  S
C158        C163   1.529       .  S
C158        C165   1.538       .  S
C160        C163   1.365       .  D
C160        C562   1.465       .  S
C161        C164   1.381       .  D
C161        C506   1.496       .  S
C162        C165   1.385       .  D
C162        C176   1.501       .  S
C163        C528   1.466       .  S
C164        C496   1.497       .  S
C165        C198   1.499       .  S
C166        H167   1.112       .  S
C166        C172   1.536       .  S
C166        C171   1.542       .  S
C166        C170   1.528       .  S
C168        H169   1.110       .  S
C168        C174   1.541       .  S
C168        C173   1.528       .  S
C168        C175   1.547       .  S
C170        C173   1.369       .  D
C170        C606   1.469       .  S
C171        C174   1.384       .  D
C171        C330   1.504       .  S
C172        C175   1.384       .  D
C172        C440   1.486       .  S
C173        C584   1.467       .  S
C174        C320   1.494       .  S
C175        C462   1.510       .  S
C176        C177   1.402       .  A
C176        C181   1.404       .  A
C177        C178   1.405       .  A
C177        H190   1.083       .  S
C178        C179   1.419       .  A
C178        H191   1.077       .  S
C179        C185   1.435       .  A
C179        C180   1.420       .  A
C180        C182   1.400       .  A
C180        C181   1.401       .  A
C181        H192   1.080       .  S
C182        C183   1.388       .  A
C182        H193   1.084       .  S
C183        C184   1.398       .  A
C183        H194   1.084       .  S
C184        C185   1.426       .  A
C184        C189   1.407       .  A
C185        C186   1.416       .  A
C186        C187   1.401       .  A
C186        H195   1.078       .  S
C187        C188   1.399       .  A
C187        H196   1.084       .  S
C188        C189   1.396       .  A
C189        H197   1.085       .  S
C198        C199   1.405       .  A
C198        C203   1.400       .  A
C199        C200   1.403       .  A
C199        H212   1.083       .  S
C200        C201   1.417       .  A
C200        H213   1.078       .  S
C201        C207   1.438       .  A
C201        C202   1.423       .  A
C202        C204   1.399       .  A
C202        C203   1.409       .  A
C203        H214   1.085       .  S
C204        C205   1.391       .  A
C204        H215   1.084       .  S
C205        C206   1.400       .  A
C205        H216   1.084       .  S
C206        C207   1.423       .  A
C206        C211   1.410       .  A
C207        C208   1.416       .  A
C208        C209   1.403       .  A
C208        H217   1.078       .  S
C209        C210   1.403       .  A
C209        H218   1.083       .  S
C210        C211   1.403       .  A
C211        H219   1.084       .  S
C220        C221   1.402       .  A
C220        C225   1.399       .  A
C221        C222   1.404       .  A
C221        H234   1.083       .  S
C222        C223   1.415       .  A
C222        H235   1.080       .  S
C223        C229   1.434       .  A
C223        C224   1.424       .  A
C224        C226   1.399       .  A
C224        C225   1.408       .  A
C225        H236   1.085       .  S
C226        C227   1.391       .  A
C226        H237   1.084       .  S
C227        C228   1.400       .  A
C227        H238   1.084       .  S
C228        C229   1.418       .  A
C228        C233   1.405       .  A
C229        C230   1.415       .  A
C230        C231   1.405       .  A
C230        H239   1.079       .  S
C231        C232   1.407       .  A
C231        H240   1.082       .  S
C232        C233   1.409       .  A
C233        H241   1.080       .  S
C242        C243   1.402       .  A
C242        C247   1.404       .  A
C243        C244   1.398       .  A
C243        H256   1.083       .  S
C244        C245   1.414       .  A
C244        H257   1.077       .  S
C245        C251   1.435       .  A
C245        C246   1.424       .  A
C246        C248   1.401       .  A
C246        C247   1.412       .  A
C247        H258   1.084       .  S
C248        C249   1.393       .  A
C248        H259   1.084       .  S
C249        C250   1.401       .  A
C249        H260   1.084       .  S
C250        C251   1.422       .  A
C250        C255   1.409       .  A
C251        C252   1.416       .  A
C252        C253   1.399       .  A
C252        H261   1.077       .  S
C253        C254   1.399       .  A
C253        H262   1.084       .  S
C254        C255   1.406       .  A
C255        H263   1.084       .  S
C264        C265   1.400       .  A
C264        C269   1.397       .  A
C265        C266   1.402       .  A
C265        H278   1.084       .  S
C266        C267   1.416       .  A
C266        H279   1.078       .  S
C267        C273   1.437       .  A
C267        C268   1.426       .  A
C268        C270   1.398       .  A
C268        C269   1.408       .  A
C269        H280   1.085       .  S
C270        C271   1.389       .  A
C270        H281   1.084       .  S
C271        C272   1.400       .  A
C271        H282   1.084       .  S
C272        C273   1.421       .  A
C272        C277   1.405       .  A
C273        C274   1.418       .  A
C274        C275   1.405       .  A
C274        H283   1.078       .  S
C275        C276   1.404       .  A
C275        H284   1.083       .  S
C276        C277   1.405       .  A
C277        H285   1.082       .  S
C286        C287   1.402       .  A
C286        C291   1.400       .  A
C287        C288   1.397       .  A
C287        H300   1.083       .  S
C288        C289   1.415       .  A
C288        H301   1.077       .  S
C289        C295   1.433       .  A
C289        C290   1.423       .  A
C290        C292   1.400       .  A
C290        C291   1.409       .  A
C291        H302   1.085       .  S
C292        C293   1.391       .  A
C292        H303   1.084       .  S
C293        C294   1.400       .  A
C293        H304   1.084       .  S
C294        C295   1.423       .  A
C294        C299   1.408       .  A
C295        C296   1.416       .  A
C296        C297   1.398       .  A
C296        H305   1.077       .  S
C297        C298   1.401       .  A
C297        H306   1.083       .  S
C298        C299   1.402       .  A
C299        H307   1.084       .  S
C308        C309   1.401       .  A
C308        C313   1.404       .  A
C309        C310   1.399       .  A
C309        H322   1.083       .  S
C310        C311   1.415       .  A
C310        H323   1.077       .  S
C311        C317   1.435       .  A
C311        C312   1.423       .  A
C312        C314   1.400       .  A
C312        C313   1.410       .  A
C313        H324   1.084       .  S
C314        C315   1.392       .  A
C314        H325   1.084       .  S
C315        C316   1.400       .  A
C315        H326   1.084       .  S
C316        C317   1.423       .  A
C316        C321   1.409       .  A
C317        C318   1.416       .  A
C318        C319   1.399       .  A
C318        H327   1.077       .  S
C319        C320   1.402       .  A
C319        H328   1.083       .  S
C320        C321   1.401       .  A
C321        H329   1.085       .  S
C330        C331   1.406       .  A
C330        C335   1.404       .  A
C331        C332   1.395       .  A
C331        H344   1.081       .  S
C332        C333   1.410       .  A
C332        H345   1.078       .  S
C333        C339   1.433       .  A
C333        C334   1.424       .  A
C334        C336   1.400       .  A
C334        C335   1.413       .  A
C335        H346   1.084       .  S
C336        C337   1.393       .  A
C336        H347   1.084       .  S
C337        C338   1.401       .  A
C337        H348   1.084       .  S
C338        C339   1.421       .  A
C338        C343   1.408       .  A
C339        C340   1.419       .  A
C340        C341   1.401       .  A
C340        H349   1.078       .  S
C341        C342   1.397       .  A
C341        H350   1.083       .  S
C342        C343   1.400       .  A
C343        H351   1.085       .  S
C352        C353   1.409       .  A
C352        C357   1.408       .  A
C353        C354   1.393       .  A
C353        H366   1.077       .  S
C354        C355   1.408       .  A
C354        H367   1.080       .  S
C355        C361   1.431       .  A
C355        C356   1.422       .  A
C356        C358   1.401       .  A
C356        C357   1.413       .  A
C357        H368   1.083       .  S
C358        C359   1.395       .  A
C358        H369   1.084       .  S
C359        C360   1.402       .  A
C359        H370   1.084       .  S
C360        C361   1.421       .  A
C360        C365   1.410       .  A
C361        C362   1.416       .  A
C362        C363   1.398       .  A
C362        H371   1.079       .  S
C363        C364   1.397       .  A
C363        H372   1.083       .  S
C364        C365   1.403       .  A
C365        H373   1.085       .  S
C374        C375   1.402       .  A
C374        C379   1.405       .  A
C375        C376   1.401       .  A
C375        H388   1.083       .  S
C376        C377   1.415       .  A
C376        H389   1.077       .  S
C377        C383   1.436       .  A
C377        C378   1.423       .  A
C378        C380   1.401       .  A
C378        C379   1.412       .  A
C379        H390   1.084       .  S
C380        C381   1.393       .  A
C380        H391   1.084       .  S
C381        C382   1.400       .  A
C381        H392   1.084       .  S
C382        C383   1.423       .  A
C382        C387   1.409       .  A
C383        C384   1.416       .  A
C384        C385   1.400       .  A
C384        H393   1.077       .  S
C385        C386   1.398       .  A
C385        H394   1.084       .  S
C386        C387   1.404       .  A
C387        H395   1.084       .  S
C396        C397   1.405       .  A
C396        C401   1.406       .  A
C397        C398   1.391       .  A
C397        H410   1.080       .  S
C398        C399   1.409       .  A
C398        H411   1.077       .  S
C399        C405   1.429       .  A
C399        C400   1.423       .  A
C400        C402   1.401       .  A
C400        C401   1.412       .  A
C401        H412   1.084       .  S
C402        C403   1.394       .  A
C402        H413   1.084       .  S
C403        C404   1.401       .  A
C403        H414   1.084       .  S
C404        C405   1.421       .  A
C404        C409   1.407       .  A
C405        C406   1.417       .  A
C406        C407   1.396       .  A
C406        H415   1.077       .  S
C407        C408   1.394       .  A
C407        H416   1.084       .  S
C408        C409   1.401       .  A
C409        H417   1.085       .  S
C418        C419   1.402       .  A
C418        C423   1.404       .  A
C419        C420   1.403       .  A
C419        H432   1.083       .  S
C420        C421   1.417       .  A
C420        H433   1.077       .  S
C421        C427   1.438       .  A
C421        C422   1.423       .  A
C422        C424   1.400       .  A
C422        C423   1.410       .  A
C423        H434   1.084       .  S
C424        C425   1.392       .  A
C424        H435   1.084       .  S
C425        C426   1.400       .  A
C425        H436   1.084       .  S
C426        C427   1.424       .  A
C426        C431   1.411       .  A
C427        C428   1.416       .  A
C428        C429   1.401       .  A
C428        H437   1.077       .  S
C429        C430   1.403       .  A
C429        H438   1.083       .  S
C430        C431   1.400       .  A
C431        H439   1.085       .  S
C440        C441   1.397       .  A
C440        C445   1.403       .  A
C441        C442   1.397       .  A
C441        H454   1.084       .  S
C442        C443   1.416       .  A
C442        H455   1.077       .  S
C443        C449   1.432       .  A
C443        C444   1.422       .  A
C444        C446   1.400       .  A
C444        C445   1.407       .  A
C445        H456   1.084       .  S
C446        C447   1.393       .  A
C446        H457   1.084       .  S
C447        C448   1.401       .  A
C447        H458   1.084       .  S
C448        C449   1.423       .  A
C448        C453   1.410       .  A
C449        C450   1.414       .  A
C450        C451   1.396       .  A
C450        H459   1.077       .  S
C451        C452   1.401       .  A
C451        H460   1.083       .  S
C452        C453   1.403       .  A
C453        H461   1.084       .  S
C462        C463   1.408       .  A
C462        C467   1.406       .  A
C463        C464   1.395       .  A
C463        H476   1.079       .  S
C464        C465   1.410       .  A
C464        H477   1.078       .  S
C465        C471   1.433       .  A
C465        C466   1.423       .  A
C466        C468   1.400       .  A
C466        C467   1.412       .  A
C467        H478   1.083       .  S
C468        C469   1.393       .  A
C468        H479   1.084       .  S
C469        C470   1.401       .  A
C469        H480   1.084       .  S
C470        C471   1.421       .  A
C470        C475   1.408       .  A
C471        C472   1.418       .  A
C472        C473   1.400       .  A
C472        H481   1.077       .  S
C473        C474   1.397       .  A
C473        H482   1.084       .  S
C474        C475   1.401       .  A
C475        H483   1.085       .  S
C484        C485   1.397       .  A
C484        C489   1.401       .  A
C485        C486   1.401       .  A
C485        H498   1.083       .  S
C486        C487   1.418       .  A
C486        H499   1.078       .  S
C487        C493   1.432       .  A
C487        C488   1.421       .  A
C488        C490   1.401       .  A
C488        C489   1.408       .  A
C489        H500   1.085       .  S
C490        C491   1.393       .  A
C490        H501   1.084       .  S
C491        C492   1.400       .  A
C491        H502   1.084       .  S
C492        C493   1.424       .  A
C492        C497   1.412       .  A
C493        C494   1.411       .  A
C494        C495   1.395       .  A
C494        H503   1.078       .  S
C495        C496   1.403       .  A
C495        H504   1.079       .  S
C496        C497   1.402       .  A
C497        H505   1.084       .  S
C506        C507   1.404       .  A
C506        C511   1.401       .  A
C507        C508   1.399       .  A
C507        H520   1.082       .  S
C508        C509   1.415       .  A
C508        H521   1.078       .  S
C509        C515   1.436       .  A
C509        C510   1.424       .  A
C510        C512   1.400       .  A
C510        C511   1.410       .  A
C511        H522   1.085       .  S
C512        C513   1.391       .  A
C512        H523   1.084       .  S
C513        C514   1.400       .  A
C513        H524   1.084       .  S
C514        C515   1.423       .  A
C514        C519   1.409       .  A
C515        C516   1.416       .  A
C516        C517   1.401       .  A
C516        H525   1.078       .  S
C517        C518   1.402       .  A
C517        H526   1.083       .  S
C518        C519   1.403       .  A
C519        H527   1.084       .  S
C528        C529   1.393       .  A
C528        C533   1.396       .  A
C529        C530   1.390       .  A
C529        H542   1.082       .  S
C530        C531   1.415       .  A
C530        H543   1.076       .  S
C531        C537   1.423       .  A
C531        C532   1.423       .  A
C532        C534   1.398       .  A
C532        C533   1.399       .  A
C533        H544   1.085       .  S
C534        C535   1.388       .  A
C534        H545   1.084       .  S
C535        C536   1.399       .  A
C535        H546   1.084       .  S
C536        C537   1.423       .  A
C536        C541   1.402       .  A
C537        C538   1.413       .  A
C538        C539   1.390       .  A
C538        H547   1.076       .  S
C539        C540   1.398       .  A
C539        H548   1.083       .  S
C540        C541   1.398       .  A
C541        H549   1.085       .  S
C550        C551   1.399       .  A
C550        C555   1.398       .  A
C551        C552   1.392       .  A
C551        H564   1.083       .  S
C552        C553   1.413       .  A
C552        H565   1.077       .  S
C553        C559   1.423       .  A
C553        C554   1.423       .  A
C554        C556   1.398       .  A
C554        C555   1.400       .  A
C555        H566   1.085       .  S
C556        C557   1.387       .  A
C556        H567   1.084       .  S
C557        C558   1.398       .  A
C557        H568   1.084       .  S
C558        C559   1.422       .  A
C558        C563   1.397       .  A
C559        C560   1.416       .  A
C560        C561   1.393       .  A
C560        H569   1.077       .  S
C561        C562   1.393       .  A
C561        H570   1.083       .  S
C562        C563   1.395       .  A
C563        H571   1.085       .  S
C572        C573   1.396       .  A
C572        C577   1.401       .  A
C573        C574   1.390       .  A
C573        H586   1.084       .  S
C574        C575   1.414       .  A
C574        H587   1.076       .  S
C575        C581   1.423       .  A
C575        C576   1.422       .  A
C576        C578   1.400       .  A
C576        C577   1.403       .  A
C577        H588   1.085       .  S
C578        C579   1.390       .  A
C578        H589   1.084       .  S
C579        C580   1.399       .  A
C579        H590   1.084       .  S
C580        C581   1.423       .  A
C580        C585   1.402       .  A
C581        C582   1.414       .  A
C582        C583   1.389       .  A
C582        H591   1.076       .  S
C583        C584   1.394       .  A
C583        H592   1.084       .  S
C584        C585   1.396       .  A
C585        H593   1.085       .  S
C594        C595   1.395       .  A
C594        C599   1.400       .  A
C595        C596   1.386       .  A
C595        H608   1.084       .  S
C596        C597   1.413       .  A
C596        H609   1.075       .  S
C597        C603   1.422       .  A
C597        C598   1.423       .  A
C598        C600   1.400       .  A
C598        C599   1.404       .  A
C599        H610   1.084       .  S
C600        C601   1.391       .  A
C600        H611   1.084       .  S
C601        C602   1.400       .  A
C601        H612   1.084       .  S
C602        C603   1.422       .  A
C602        C607   1.402       .  A
C603        C604   1.414       .  A
C604        C605   1.387       .  A
C604        H613   1.075       .  S
C605        C606   1.394       .  A
C605        H614   1.084       .  S
C606        C607   1.397       .  A
C607        H615   1.083       .  S
C616        C617   1.391       .  A
C616        C621   1.395       .  A
C617        C618   1.390       .  A
C617        H630   1.083       .  S
C618        C619   1.416       .  A
C618        H631   1.077       .  S
C619        C625   1.419       .  A
C619        C620   1.421       .  A
C620        C622   1.399       .  A
C620        C621   1.398       .  A
C621        H632   1.085       .  S
C622        C623   1.390       .  A
C622        H633   1.084       .  S
C623        C624   1.399       .  A
C623        H634   1.084       .  S
C624        C625   1.423       .  A
C624        C629   1.402       .  A
C625        C626   1.410       .  A
C626        C627   1.387       .  A
C626        H635   1.078       .  S
C627        C628   1.399       .  A
C627        H636   1.083       .  S
C628        C629   1.398       .  A
C629        H637   1.085       .  S
C638        C639   1.395       .  A
C638        C643   1.394       .  A
C639        C640   1.393       .  A
C639        H652   1.084       .  S
C640        C641   1.415       .  A
C640        H653   1.077       .  S
C641        C647   1.427       .  A
C641        C642   1.424       .  A
C642        C644   1.398       .  A
C642        C643   1.402       .  A
C643        H654   1.084       .  S
C644        C645   1.389       .  A
C644        H655   1.084       .  S
C645        C646   1.400       .  A
C645        H656   1.084       .  S
C646        C647   1.422       .  A
C646        C651   1.402       .  A
C647        C648   1.416       .  A
C648        C649   1.396       .  A
C648        H657   1.077       .  S
C649        C650   1.398       .  A
C649        H658   1.083       .  S
C650        C651   1.401       .  A
C651        H659   1.084       .  S
C660        C661   1.393       .  A
C660        C665   1.393       .  A
C661        C662   1.389       .  A
C661        H674   1.084       .  S
C662        C663   1.415       .  A
C662        H675   1.076       .  S
C663        C669   1.423       .  A
C663        C664   1.423       .  A
C664        C666   1.398       .  A
C664        C665   1.400       .  A
C665        H676   1.083       .  S
C666        C667   1.388       .  A
C666        H677   1.084       .  S
C667        C668   1.399       .  A
C667        H678   1.084       .  S
C668        C669   1.422       .  A
C668        C673   1.401       .  A
C669        C670   1.414       .  A
C670        C671   1.390       .  A
C670        H679   1.076       .  S
C671        C672   1.397       .  A
C671        H680   1.084       .  S
C672        C673   1.398       .  A
C673        H681   1.084       .  S
C682        C683   1.398       .  A
C682        C687   1.399       .  A
C683        C684   1.394       .  A
C683        H696   1.083       .  S
C684        C685   1.415       .  A
C684        H697   1.077       .  S
C685        C691   1.426       .  A
C685        C686   1.422       .  A
C686        C688   1.399       .  A
C686        C687   1.401       .  A
C687        H698   1.084       .  S
C688        C689   1.389       .  A
C688        H699   1.084       .  S
C689        C690   1.399       .  A
C689        H700   1.084       .  S
C690        C691   1.423       .  A
C690        C695   1.401       .  A
C691        C692   1.416       .  A
C692        C693   1.394       .  A
C692        H701   1.077       .  S
C693        C694   1.394       .  A
C693        H702   1.083       .  S
C694        C695   1.397       .  A
C695        H703   1.085       .  S
N704        N705   1.321       .  A
N704        N710   1.315       .  A
N704       Mn733   2.204       .  S
N705        C712   1.355       .  A
N706        N708   1.313       .  A
N706        N707   1.321       .  A
N707        C713   1.355       .  A
N708        N709   1.313       .  A
N709        C713   1.348       .  A
N710        N711   1.318       .  A
N710       Mn722   2.188       .  S
N711        C712   1.351       .  A
C712       C1353   1.475       .  S
C713       C1331   1.466       .  S
N714        N720   1.314       .  A
N714        N715   1.316       .  A
N714       Mn744   2.183       .  S
N715        C723   1.350       .  A
N716        N717   1.318       .  A
N716        N718   1.314       .  A
N716       Mn722   2.192       .  S
N717        C724   1.352       .  A
N718        N719   1.319       .  A
N719        C724   1.353       .  A
N720        N721   1.319       .  A
N721        C723   1.353       .  A
Mn722      Cl746   2.543       .  S
C723       C1375   1.466       .  S
C724       C1385   1.471       .  S
N725        N726   1.319       .  A
N725        N731   1.314       .  A
N726        C734   1.352       .  A
N727        N729   1.314       .  A
N727        N728   1.320       .  A
N728        C735   1.352       .  A
N729        N730   1.315       .  A
N729       Mn733   2.179       .  S
N730        C735   1.350       .  A
N731        N732   1.317       .  A
N731       Mn745   2.188       .  S
N732        C734   1.352       .  A
Mn733      Cl746   2.529       .  S
C734       C1275   1.468       .  S
C735       C1297   1.463       .  S
N736        N737   1.319       .  A
N736        N742   1.314       .  A
N737        C747   1.353       .  A
N738        N739   1.320       .  A
N738        N740   1.314       .  A
N738       Mn745   2.195       .  S
N739        C748   1.354       .  A
N740        N741   1.316       .  A
N740       Mn744   2.183       .  S
N741        C748   1.350       .  A
N742        N743   1.317       .  A
N743        C747   1.350       .  A
C747       C1253   1.468       .  S
C748       C1243   1.468       .  S
N749        N750   1.323       .  A
N749        N755   1.318       .  A
N749       Mn778   2.224       .  S
N750        C757   1.356       .  A
N751        N753   1.318       .  A
N751        N752   1.322       .  A
N751       Mn767   2.211   1_545  S
N752        C758   1.352       .  A
N753        N754   1.320       .  A
N753       Mn778   2.204   1_545  S
N754        C758   1.350       .  A
N755        N756   1.322       .  A
N755       Mn767   2.210       .  S
N756        C757   1.354       .  A
C757       C1221   1.489       .  S
C758       C1111   1.468       .  S
N759        N765   1.317       .  A
N759        N760   1.323       .  A
N759       Mn789   2.222   1_545  S
N760        C768   1.356       .  A
N761        N762   1.324       .  A
N761        N763   1.317       .  A
N761       Mn767   2.216       .  S
N762        C769   1.356       .  A
N763        N764   1.320       .  A
N763       Mn789   2.207       .  S
N764        C769   1.353       .  A
N765        N766   1.324       .  A
N765       Mn767   2.221   1_545  S
N766        C768   1.356       .  A
Mn767      Cl791   2.561       .  S
C768       C1077   1.493       .  S
C769       C1155   1.485       .  S
N770        N771   1.323       .  A
N770        N776   1.318       .  A
N771        C779   1.356       .  A
N772        N774   1.318       .  A
N772        N773   1.324       .  A
N772       Mn790   2.223       .  S
N773        C780   1.354       .  A
N774        N775   1.322       .  A
N775        C780   1.352       .  A
N776        N777   1.323       .  A
N776       Mn790   2.219   1_545  S
N777        C779   1.355       .  A
Mn778      Cl791   2.552       .  S
C779       C1121   1.491       .  S
C780       C1187   1.476       .  S
N781        N782   1.323       .  A
N781        N787   1.318       .  A
N782        C792   1.353       .  A
N783        N784   1.323       .  A
N783        N785   1.318       .  A
N783       Mn790   2.214   1_545  S
N784        C793   1.353       .  A
N785        N786   1.322       .  A
N786        C793   1.353       .  A
N787        N788   1.322       .  A
N787       Mn790   2.209       .  S
N788        C792   1.352       .  A
Mn789      Cl791   2.548       .  S
C792       C1177   1.476       .  S
C793       C1067   1.477       .  S
N794        N795   1.322       .  A
N794        N800   1.319       .  A
N794       Mn823   2.218   1_655  S
N795        C802   1.352       .  A
N796        N798   1.319       .  A
N796        N797   1.323       .  A
N796       Mn812   2.217       .  S
N797        C803   1.353       .  A
N798        N799   1.321       .  A
N798       Mn823   2.211       .  S
N799        C803   1.351       .  A
N800        N801   1.323       .  A
N800       Mn812   2.218   1_655  S
N801        C802   1.354       .  A
C802       C1045   1.476       .  S
C803        C891   1.473       .  S
N804        N810   1.319       .  A
N804        N805   1.320       .  A
N804       Mn834   2.213       .  S
N805        C813   1.353       .  A
N806        N807   1.324       .  A
N806        N808   1.318       .  A
N806       Mn812   2.221   1_655  S
N807        C814   1.354       .  A
N808        N809   1.322       .  A
N808       Mn834   2.207   1_655  S
N809        C814   1.351       .  A
N810        N811   1.325       .  A
N810       Mn812   2.223       .  S
N811        C813   1.357       .  A
Mn812      Cl836   2.568       .  S
C813        C945   1.490       .  S
C814        C967   1.476       .  S
N815        N816   1.324       .  A
N815        N821   1.319       .  A
N816        C824   1.356       .  A
N817        N819   1.316       .  A
N817        N818   1.322       .  A
N817       Mn835   2.213   1_655  S
N818        C825   1.354       .  A
N819        N820   1.323       .  A
N820        C825   1.355       .  A
N821        N822   1.323       .  A
N821       Mn835   2.219       .  S
N822        C824   1.355       .  A
Mn823      Cl836   2.550       .  S
C824        C913   1.493       .  S
C825       C1011   1.488       .  S
N826        N827   1.322       .  A
N826        N832   1.317       .  A
N827        C837   1.355       .  A
N828        N829   1.324       .  A
N828        N830   1.318       .  A
N828       Mn835   2.222       .  S
N829        C838   1.355       .  A
N830        N831   1.322       .  A
N831        C838   1.352       .  A
N832        N833   1.320       .  A
N832       Mn835   2.201   1_655  S
N833        C837   1.353       .  A
Mn834      Cl836   2.545       .  S
C837       C1001   1.483       .  S
C838        C923   1.481       .  S
C839        H840   1.111       .  S
C839        C845   1.547       .  S
C839        C844   1.538       .  S
C839        C843   1.526       .  S
C841        H842   1.109       .  S
C841        C847   1.552       .  S
C841        C846   1.531       .  S
C841        C848   1.539       .  S
C843        C846   1.365       .  D
C843       C1397   1.471       .  S
C844        C847   1.387       .  D
C844        C957   1.496       .  S
C845        C848   1.383       .  D
C845       C1099   1.503       .  S
C846       C1363   1.462       .  S
C847        C935   1.513       .  S
C848       C1133   1.497       .  S
C849        H850   1.111       .  S
C849        C855   1.546       .  S
C849        C854   1.541       .  S
C849        C853   1.530       .  S
C851        H852   1.110       .  S
C851        C857   1.549       .  S
C851        C856   1.525       .  S
C851        C858   1.539       .  S
C853        C856   1.363       .  D
C853       C1341   1.468       .  S
C854        C857   1.387       .  D
C854       C1089   1.492       .  S
C855        C858   1.383       .  D
C855        C979   1.506       .  S
C856       C1319   1.459       .  S
C857       C1055   1.513       .  S
C858        C989   1.493       .  S
C859        H860   1.111       .  S
C859        C865   1.550       .  S
C859        C864   1.540       .  S
C859        C863   1.529       .  S
C861        H862   1.112       .  S
C861        C867   1.542       .  S
C861        C866   1.529       .  S
C861        C868   1.538       .  S
C863        C866   1.365       .  D
C863       C1265   1.465       .  S
C864        C867   1.381       .  D
C864       C1209   1.496       .  S
C865        C868   1.385       .  D
C865        C879   1.501       .  S
C866       C1231   1.466       .  S
C867       C1199   1.497       .  S
C868        C901   1.499       .  S
C869        H870   1.112       .  S
C869        C875   1.536       .  S
C869        C874   1.542       .  S
C869        C873   1.528       .  S
C871        H872   1.110       .  S
C871        C877   1.541       .  S
C871        C876   1.528       .  S
C871        C878   1.547       .  S
C873        C876   1.369       .  D
C873       C1309   1.469       .  S
C874        C877   1.384       .  D
C874       C1033   1.504       .  S
C875        C878   1.384       .  D
C875       C1143   1.486       .  S
C876       C1287   1.467       .  S
C877       C1023   1.494       .  S
C878       C1165   1.510       .  S
C879        C880   1.402       .  A
C879        C884   1.404       .  A
C880        C881   1.405       .  A
C880        H893   1.083       .  S
C881        C882   1.419       .  A
C881        H894   1.077       .  S
C882        C888   1.435       .  A
C882        C883   1.420       .  A
C883        C885   1.400       .  A
C883        C884   1.401       .  A
C884        H895   1.080       .  S
C885        C886   1.388       .  A
C885        H896   1.084       .  S
C886        C887   1.398       .  A
C886        H897   1.084       .  S
C887        C888   1.426       .  A
C887        C892   1.407       .  A
C888        C889   1.416       .  A
C889        C890   1.401       .  A
C889        H898   1.078       .  S
C890        C891   1.399       .  A
C890        H899   1.084       .  S
C891        C892   1.396       .  A
C892        H900   1.085       .  S
C901        C902   1.405       .  A
C901        C906   1.400       .  A
C902        C903   1.403       .  A
C902        H915   1.083       .  S
C903        C904   1.417       .  A
C903        H916   1.078       .  S
C904        C910   1.438       .  A
C904        C905   1.423       .  A
C905        C907   1.399       .  A
C905        C906   1.409       .  A
C906        H917   1.085       .  S
C907        C908   1.391       .  A
C907        H918   1.084       .  S
C908        C909   1.400       .  A
C908        H919   1.084       .  S
C909        C910   1.423       .  A
C909        C914   1.410       .  A
C910        C911   1.416       .  A
C911        C912   1.403       .  A
C911        H920   1.078       .  S
C912        C913   1.403       .  A
C912        H921   1.083       .  S
C913        C914   1.403       .  A
C914        H922   1.084       .  S
C923        C924   1.402       .  A
C923        C928   1.399       .  A
C924        C925   1.404       .  A
C924        H937   1.083       .  S
C925        C926   1.415       .  A
C925        H938   1.080       .  S
C926        C932   1.434       .  A
C926        C927   1.424       .  A
C927        C929   1.399       .  A
C927        C928   1.408       .  A
C928        H939   1.085       .  S
C929        C930   1.391       .  A
C929        H940   1.084       .  S
C930        C931   1.400       .  A
C930        H941   1.084       .  S
C931        C932   1.418       .  A
C931        C936   1.405       .  A
C932        C933   1.415       .  A
C933        C934   1.405       .  A
C933        H942   1.079       .  S
C934        C935   1.407       .  A
C934        H943   1.082       .  S
C935        C936   1.409       .  A
C936        H944   1.080       .  S
C945        C946   1.402       .  A
C945        C950   1.404       .  A
C946        C947   1.398       .  A
C946        H959   1.083       .  S
C947        C948   1.414       .  A
C947        H960   1.077       .  S
C948        C954   1.435       .  A
C948        C949   1.424       .  A
C949        C951   1.401       .  A
C949        C950   1.412       .  A
C950        H961   1.084       .  S
C951        C952   1.393       .  A
C951        H962   1.084       .  S
C952        C953   1.401       .  A
C952        H963   1.084       .  S
C953        C954   1.422       .  A
C953        C958   1.409       .  A
C954        C955   1.416       .  A
C955        C956   1.399       .  A
C955        H964   1.077       .  S
C956        C957   1.399       .  A
C956        H965   1.084       .  S
C957        C958   1.406       .  A
C958        H966   1.084       .  S
C967        C968   1.400       .  A
C967        C972   1.397       .  A
C968        C969   1.402       .  A
C968        H981   1.084       .  S
C969        C970   1.416       .  A
C969        H982   1.078       .  S
C970        C976   1.437       .  A
C970        C971   1.426       .  A
C971        C973   1.398       .  A
C971        C972   1.408       .  A
C972        H983   1.085       .  S
C973        C974   1.389       .  A
C973        H984   1.084       .  S
C974        C975   1.400       .  A
C974        H985   1.084       .  S
C975        C976   1.421       .  A
C975        C980   1.405       .  A
C976        C977   1.418       .  A
C977        C978   1.405       .  A
C977        H986   1.078       .  S
C978        C979   1.404       .  A
C978        H987   1.083       .  S
C979        C980   1.405       .  A
C980        H988   1.082       .  S
C989        C990   1.402       .  A
C989        C994   1.400       .  A
C990        C991   1.397       .  A
C990       H1003   1.083       .  S
C991        C992   1.415       .  A
C991       H1004   1.077       .  S
C992        C998   1.433       .  A
C992        C993   1.423       .  A
C993        C995   1.400       .  A
C993        C994   1.409       .  A
C994       H1005   1.085       .  S
C995        C996   1.391       .  A
C995       H1006   1.084       .  S
C996        C997   1.400       .  A
C996       H1007   1.084       .  S
C997        C998   1.423       .  A
C997       C1002   1.408       .  A
C998        C999   1.416       .  A
C999       C1000   1.398       .  A
C999       H1008   1.077       .  S
C1000      C1001   1.401       .  A
C1000      H1009   1.083       .  S
C1001      C1002   1.402       .  A
C1002      H1010   1.084       .  S
C1011      C1012   1.401       .  A
C1011      C1016   1.404       .  A
C1012      C1013   1.399       .  A
C1012      H1025   1.083       .  S
C1013      C1014   1.415       .  A
C1013      H1026   1.077       .  S
C1014      C1020   1.435       .  A
C1014      C1015   1.423       .  A
C1015      C1017   1.400       .  A
C1015      C1016   1.410       .  A
C1016      H1027   1.084       .  S
C1017      C1018   1.392       .  A
C1017      H1028   1.084       .  S
C1018      C1019   1.400       .  A
C1018      H1029   1.084       .  S
C1019      C1020   1.423       .  A
C1019      C1024   1.409       .  A
C1020      C1021   1.416       .  A
C1021      C1022   1.399       .  A
C1021      H1030   1.077       .  S
C1022      C1023   1.402       .  A
C1022      H1031   1.083       .  S
C1023      C1024   1.401       .  A
C1024      H1032   1.085       .  S
C1033      C1034   1.406       .  A
C1033      C1038   1.404       .  A
C1034      C1035   1.395       .  A
C1034      H1047   1.081       .  S
C1035      C1036   1.410       .  A
C1035      H1048   1.078       .  S
C1036      C1042   1.433       .  A
C1036      C1037   1.424       .  A
C1037      C1039   1.400       .  A
C1037      C1038   1.413       .  A
C1038      H1049   1.084       .  S
C1039      C1040   1.393       .  A
C1039      H1050   1.084       .  S
C1040      C1041   1.401       .  A
C1040      H1051   1.084       .  S
C1041      C1042   1.421       .  A
C1041      C1046   1.408       .  A
C1042      C1043   1.419       .  A
C1043      C1044   1.401       .  A
C1043      H1052   1.078       .  S
C1044      C1045   1.397       .  A
C1044      H1053   1.083       .  S
C1045      C1046   1.400       .  A
C1046      H1054   1.085       .  S
C1055      C1056   1.409       .  A
C1055      C1060   1.408       .  A
C1056      C1057   1.393       .  A
C1056      H1069   1.077       .  S
C1057      C1058   1.408       .  A
C1057      H1070   1.080       .  S
C1058      C1064   1.431       .  A
C1058      C1059   1.422       .  A
C1059      C1061   1.401       .  A
C1059      C1060   1.413       .  A
C1060      H1071   1.083       .  S
C1061      C1062   1.395       .  A
C1061      H1072   1.084       .  S
C1062      C1063   1.402       .  A
C1062      H1073   1.084       .  S
C1063      C1064   1.421       .  A
C1063      C1068   1.410       .  A
C1064      C1065   1.416       .  A
C1065      C1066   1.398       .  A
C1065      H1074   1.079       .  S
C1066      C1067   1.397       .  A
C1066      H1075   1.083       .  S
C1067      C1068   1.403       .  A
C1068      H1076   1.085       .  S
C1077      C1078   1.402       .  A
C1077      C1082   1.405       .  A
C1078      C1079   1.401       .  A
C1078      H1091   1.083       .  S
C1079      C1080   1.415       .  A
C1079      H1092   1.077       .  S
C1080      C1086   1.436       .  A
C1080      C1081   1.423       .  A
C1081      C1083   1.401       .  A
C1081      C1082   1.412       .  A
C1082      H1093   1.084       .  S
C1083      C1084   1.393       .  A
C1083      H1094   1.084       .  S
C1084      C1085   1.400       .  A
C1084      H1095   1.084       .  S
C1085      C1086   1.423       .  A
C1085      C1090   1.409       .  A
C1086      C1087   1.416       .  A
C1087      C1088   1.400       .  A
C1087      H1096   1.077       .  S
C1088      C1089   1.398       .  A
C1088      H1097   1.084       .  S
C1089      C1090   1.404       .  A
C1090      H1098   1.084       .  S
C1099      C1100   1.405       .  A
C1099      C1104   1.406       .  A
C1100      C1101   1.391       .  A
C1100      H1113   1.080       .  S
C1101      C1102   1.409       .  A
C1101      H1114   1.077       .  S
C1102      C1108   1.429       .  A
C1102      C1103   1.423       .  A
C1103      C1105   1.401       .  A
C1103      C1104   1.412       .  A
C1104      H1115   1.084       .  S
C1105      C1106   1.394       .  A
C1105      H1116   1.084       .  S
C1106      C1107   1.401       .  A
C1106      H1117   1.084       .  S
C1107      C1108   1.421       .  A
C1107      C1112   1.407       .  A
C1108      C1109   1.417       .  A
C1109      C1110   1.396       .  A
C1109      H1118   1.077       .  S
C1110      C1111   1.394       .  A
C1110      H1119   1.084       .  S
C1111      C1112   1.401       .  A
C1112      H1120   1.085       .  S
C1121      C1122   1.402       .  A
C1121      C1126   1.404       .  A
C1122      C1123   1.403       .  A
C1122      H1135   1.083       .  S
C1123      C1124   1.417       .  A
C1123      H1136   1.077       .  S
C1124      C1130   1.438       .  A
C1124      C1125   1.423       .  A
C1125      C1127   1.400       .  A
C1125      C1126   1.410       .  A
C1126      H1137   1.084       .  S
C1127      C1128   1.392       .  A
C1127      H1138   1.084       .  S
C1128      C1129   1.400       .  A
C1128      H1139   1.084       .  S
C1129      C1130   1.424       .  A
C1129      C1134   1.411       .  A
C1130      C1131   1.416       .  A
C1131      C1132   1.401       .  A
C1131      H1140   1.077       .  S
C1132      C1133   1.403       .  A
C1132      H1141   1.083       .  S
C1133      C1134   1.400       .  A
C1134      H1142   1.085       .  S
C1143      C1144   1.397       .  A
C1143      C1148   1.403       .  A
C1144      C1145   1.397       .  A
C1144      H1157   1.084       .  S
C1145      C1146   1.416       .  A
C1145      H1158   1.077       .  S
C1146      C1152   1.432       .  A
C1146      C1147   1.422       .  A
C1147      C1149   1.400       .  A
C1147      C1148   1.407       .  A
C1148      H1159   1.084       .  S
C1149      C1150   1.393       .  A
C1149      H1160   1.084       .  S
C1150      C1151   1.401       .  A
C1150      H1161   1.084       .  S
C1151      C1152   1.423       .  A
C1151      C1156   1.410       .  A
C1152      C1153   1.414       .  A
C1153      C1154   1.396       .  A
C1153      H1162   1.077       .  S
C1154      C1155   1.401       .  A
C1154      H1163   1.083       .  S
C1155      C1156   1.403       .  A
C1156      H1164   1.084       .  S
C1165      C1166   1.408       .  A
C1165      C1170   1.406       .  A
C1166      C1167   1.395       .  A
C1166      H1179   1.079       .  S
C1167      C1168   1.410       .  A
C1167      H1180   1.078       .  S
C1168      C1174   1.433       .  A
C1168      C1169   1.423       .  A
C1169      C1171   1.400       .  A
C1169      C1170   1.412       .  A
C1170      H1181   1.083       .  S
C1171      C1172   1.393       .  A
C1171      H1182   1.084       .  S
C1172      C1173   1.401       .  A
C1172      H1183   1.084       .  S
C1173      C1174   1.421       .  A
C1173      C1178   1.408       .  A
C1174      C1175   1.418       .  A
C1175      C1176   1.400       .  A
C1175      H1184   1.077       .  S
C1176      C1177   1.397       .  A
C1176      H1185   1.084       .  S
C1177      C1178   1.401       .  A
C1178      H1186   1.085       .  S
C1187      C1188   1.397       .  A
C1187      C1192   1.401       .  A
C1188      C1189   1.401       .  A
C1188      H1201   1.083       .  S
C1189      C1190   1.418       .  A
C1189      H1202   1.078       .  S
C1190      C1196   1.432       .  A
C1190      C1191   1.421       .  A
C1191      C1193   1.401       .  A
C1191      C1192   1.408       .  A
C1192      H1203   1.085       .  S
C1193      C1194   1.393       .  A
C1193      H1204   1.084       .  S
C1194      C1195   1.400       .  A
C1194      H1205   1.084       .  S
C1195      C1196   1.424       .  A
C1195      C1200   1.412       .  A
C1196      C1197   1.411       .  A
C1197      C1198   1.395       .  A
C1197      H1206   1.078       .  S
C1198      C1199   1.403       .  A
C1198      H1207   1.079       .  S
C1199      C1200   1.402       .  A
C1200      H1208   1.084       .  S
C1209      C1210   1.404       .  A
C1209      C1214   1.401       .  A
C1210      C1211   1.399       .  A
C1210      H1223   1.082       .  S
C1211      C1212   1.415       .  A
C1211      H1224   1.078       .  S
C1212      C1218   1.436       .  A
C1212      C1213   1.424       .  A
C1213      C1215   1.400       .  A
C1213      C1214   1.410       .  A
C1214      H1225   1.085       .  S
C1215      C1216   1.391       .  A
C1215      H1226   1.084       .  S
C1216      C1217   1.400       .  A
C1216      H1227   1.084       .  S
C1217      C1218   1.423       .  A
C1217      C1222   1.409       .  A
C1218      C1219   1.416       .  A
C1219      C1220   1.401       .  A
C1219      H1228   1.078       .  S
C1220      C1221   1.402       .  A
C1220      H1229   1.083       .  S
C1221      C1222   1.403       .  A
C1222      H1230   1.084       .  S
C1231      C1232   1.393       .  A
C1231      C1236   1.396       .  A
C1232      C1233   1.390       .  A
C1232      H1245   1.082       .  S
C1233      C1234   1.415       .  A
C1233      H1246   1.076       .  S
C1234      C1240   1.423       .  A
C1234      C1235   1.423       .  A
C1235      C1237   1.398       .  A
C1235      C1236   1.399       .  A
C1236      H1247   1.085       .  S
C1237      C1238   1.388       .  A
C1237      H1248   1.084       .  S
C1238      C1239   1.399       .  A
C1238      H1249   1.084       .  S
C1239      C1240   1.423       .  A
C1239      C1244   1.402       .  A
C1240      C1241   1.413       .  A
C1241      C1242   1.390       .  A
C1241      H1250   1.076       .  S
C1242      C1243   1.398       .  A
C1242      H1251   1.083       .  S
C1243      C1244   1.398       .  A
C1244      H1252   1.085       .  S
C1253      C1254   1.399       .  A
C1253      C1258   1.398       .  A
C1254      C1255   1.392       .  A
C1254      H1267   1.083       .  S
C1255      C1256   1.413       .  A
C1255      H1268   1.077       .  S
C1256      C1262   1.423       .  A
C1256      C1257   1.423       .  A
C1257      C1259   1.398       .  A
C1257      C1258   1.400       .  A
C1258      H1269   1.085       .  S
C1259      C1260   1.387       .  A
C1259      H1270   1.084       .  S
C1260      C1261   1.398       .  A
C1260      H1271   1.084       .  S
C1261      C1262   1.422       .  A
C1261      C1266   1.397       .  A
C1262      C1263   1.416       .  A
C1263      C1264   1.393       .  A
C1263      H1272   1.077       .  S
C1264      C1265   1.393       .  A
C1264      H1273   1.083       .  S
C1265      C1266   1.395       .  A
C1266      H1274   1.085       .  S
C1275      C1276   1.396       .  A
C1275      C1280   1.401       .  A
C1276      C1277   1.390       .  A
C1276      H1289   1.084       .  S
C1277      C1278   1.414       .  A
C1277      H1290   1.076       .  S
C1278      C1284   1.423       .  A
C1278      C1279   1.422       .  A
C1279      C1281   1.400       .  A
C1279      C1280   1.403       .  A
C1280      H1291   1.085       .  S
C1281      C1282   1.390       .  A
C1281      H1292   1.084       .  S
C1282      C1283   1.399       .  A
C1282      H1293   1.084       .  S
C1283      C1284   1.423       .  A
C1283      C1288   1.402       .  A
C1284      C1285   1.414       .  A
C1285      C1286   1.389       .  A
C1285      H1294   1.076       .  S
C1286      C1287   1.394       .  A
C1286      H1295   1.084       .  S
C1287      C1288   1.396       .  A
C1288      H1296   1.085       .  S
C1297      C1298   1.395       .  A
C1297      C1302   1.400       .  A
C1298      C1299   1.386       .  A
C1298      H1311   1.084       .  S
C1299      C1300   1.413       .  A
C1299      H1312   1.075       .  S
C1300      C1306   1.422       .  A
C1300      C1301   1.423       .  A
C1301      C1303   1.400       .  A
C1301      C1302   1.404       .  A
C1302      H1313   1.084       .  S
C1303      C1304   1.391       .  A
C1303      H1314   1.084       .  S
C1304      C1305   1.400       .  A
C1304      H1315   1.084       .  S
C1305      C1306   1.422       .  A
C1305      C1310   1.402       .  A
C1306      C1307   1.414       .  A
C1307      C1308   1.387       .  A
C1307      H1316   1.075       .  S
C1308      C1309   1.394       .  A
C1308      H1317   1.084       .  S
C1309      C1310   1.397       .  A
C1310      H1318   1.083       .  S
C1319      C1320   1.391       .  A
C1319      C1324   1.395       .  A
C1320      C1321   1.390       .  A
C1320      H1333   1.083       .  S
C1321      C1322   1.416       .  A
C1321      H1334   1.077       .  S
C1322      C1328   1.419       .  A
C1322      C1323   1.421       .  A
C1323      C1325   1.399       .  A
C1323      C1324   1.398       .  A
C1324      H1335   1.085       .  S
C1325      C1326   1.390       .  A
C1325      H1336   1.084       .  S
C1326      C1327   1.399       .  A
C1326      H1337   1.084       .  S
C1327      C1328   1.423       .  A
C1327      C1332   1.402       .  A
C1328      C1329   1.410       .  A
C1329      C1330   1.387       .  A
C1329      H1338   1.078       .  S
C1330      C1331   1.399       .  A
C1330      H1339   1.083       .  S
C1331      C1332   1.398       .  A
C1332      H1340   1.085       .  S
C1341      C1342   1.395       .  A
C1341      C1346   1.394       .  A
C1342      C1343   1.393       .  A
C1342      H1355   1.084       .  S
C1343      C1344   1.415       .  A
C1343      H1356   1.077       .  S
C1344      C1350   1.427       .  A
C1344      C1345   1.424       .  A
C1345      C1347   1.398       .  A
C1345      C1346   1.402       .  A
C1346      H1357   1.084       .  S
C1347      C1348   1.389       .  A
C1347      H1358   1.084       .  S
C1348      C1349   1.400       .  A
C1348      H1359   1.084       .  S
C1349      C1350   1.422       .  A
C1349      C1354   1.402       .  A
C1350      C1351   1.416       .  A
C1351      C1352   1.396       .  A
C1351      H1360   1.077       .  S
C1352      C1353   1.398       .  A
C1352      H1361   1.083       .  S
C1353      C1354   1.401       .  A
C1354      H1362   1.084       .  S
C1363      C1364   1.393       .  A
C1363      C1368   1.393       .  A
C1364      C1365   1.389       .  A
C1364      H1377   1.084       .  S
C1365      C1366   1.415       .  A
C1365      H1378   1.076       .  S
C1366      C1372   1.423       .  A
C1366      C1367   1.423       .  A
C1367      C1369   1.398       .  A
C1367      C1368   1.400       .  A
C1368      H1379   1.083       .  S
C1369      C1370   1.388       .  A
C1369      H1380   1.084       .  S
C1370      C1371   1.399       .  A
C1370      H1381   1.084       .  S
C1371      C1372   1.422       .  A
C1371      C1376   1.401       .  A
C1372      C1373   1.414       .  A
C1373      C1374   1.390       .  A
C1373      H1382   1.076       .  S
C1374      C1375   1.397       .  A
C1374      H1383   1.084       .  S
C1375      C1376   1.398       .  A
C1376      H1384   1.084       .  S
C1385      C1386   1.398       .  A
C1385      C1390   1.399       .  A
C1386      C1387   1.394       .  A
C1386      H1399   1.083       .  S
C1387      C1388   1.415       .  A
C1387      H1400   1.077       .  S
C1388      C1394   1.426       .  A
C1388      C1389   1.422       .  A
C1389      C1391   1.399       .  A
C1389      C1390   1.401       .  A
C1390      H1401   1.084       .  S
C1391      C1392   1.389       .  A
C1391      H1402   1.084       .  S
C1392      C1393   1.399       .  A
C1392      H1403   1.084       .  S
C1393      C1394   1.423       .  A
C1393      C1398   1.401       .  A
C1394      C1395   1.416       .  A
C1395      C1396   1.394       .  A
C1395      H1404   1.077       .  S
C1396      C1397   1.394       .  A
C1396      H1405   1.083       .  S
C1397      C1398   1.397       .  A
C1398      H1406   1.085       .  S
