geometry optimzed in LAMMPS
_audit_creation_date              2020-11-30 
_audit_creation_method            'lammps2cif' 
_symmetry_space_group_name_H-M    'P1' 
_symmetry_Int_Tables_number       1 
_symmetry_cell_setting            triclinic 
loop_ 
_symmetry_equiv_pos_as_xyz 
  x,y,z 
_cell_length_a                    28.42777562 
_cell_length_b                    69.79856563107755 
_cell_length_c                    34.119100225393325 
_cell_angle_alpha                 87.60824259872817 
_cell_angle_beta                  92.09336645387276 
_cell_angle_gamma                 91.42370225361842 
loop_ 
_atom_site_label 
_atom_site_type_symbol 
_atom_site_fract_x 
_atom_site_fract_y 
_atom_site_fract_z 
_atom_site_charge 
C1          C  0.50980975  0.70079106  0.44351910     0.86100
C2          C  0.47495235  0.71715715  0.44559020    -0.54100
C3          C  0.47880969  0.72733210  0.47902854     0.09000
C4          C  0.02104176  0.72111122  0.50647823     0.20000
C5          C  0.05887220  0.71054290  0.44828162    -0.54800
C6          C  0.06466354  0.72142270  0.48065180     0.09100
C7          C  0.50228690  0.68956346  0.48306244    -0.54400
C8          C  0.01041029  0.69975863  0.51617665     0.09700
H9          H  0.44599902  0.71912825  0.42421373     0.14200
H10         H  0.02721482  0.72988394  0.53249400     0.00000
H11         H  0.08632783  0.70930860  0.42728695     0.14500
H12         H  0.48764537  0.67515828  0.48560486     0.14300
C13         C  0.26998483  0.79390750  0.55884898     0.86100
C14         C  0.22920889  0.77947290  0.55299394    -0.54100
C15         C  0.22938879  0.76996989  0.51902813     0.09000
C16         C  0.27365603  0.77498395  0.49420523     0.20000
C17         C  0.31350775  0.78093283  0.55683883    -0.54800
C18         C  0.31652435  0.77153890  0.52251204     0.09100
C19         C  0.26977727  0.80644616  0.52073872    -0.54400
C20         C  0.27382489  0.79702654  0.48663231     0.09700
H21         H  0.20146153  0.77715378  0.57385046     0.14200
H22         H  0.27629087  0.76659134  0.46787506     0.00000
H23         H  0.33847591  0.77812909  0.58085804     0.14500
H24         H  0.26649063  0.82189314  0.52112466     0.14300
N25         N  0.26038235  0.86839125  0.86910783    -0.27700
N26         N  0.26183704  0.88669779  0.87777548    -0.35500
C27         C  0.26850895  0.88806332  0.91669833     0.00700
C28         C  0.27130428  0.86979275  0.93349388     0.06700
C29         C  0.26584307  0.85757922  0.90260257    -0.06400
H30         H  0.27033858  0.90141563  0.93181635     0.07400
H31         H  0.26548547  0.84206709  0.90435802     0.08600
Cu32       Cu  0.25376365  0.90932644  0.83717913     0.44200
Cu33       Cu  0.25135713  0.85949512  0.81176340     0.42000
Cu34       Cu  0.24478425  0.89863023  0.73592933     0.43900
N35         N  0.24733040  0.93027028  0.79274174    -0.35000
N36         N  0.24463743  0.92649814  0.75508904    -0.29300
C37         C  0.24171183  0.94314154  0.73373451    -0.05400
C38         C  0.24245240  0.95802596  0.75939171     0.06800
C39         C  0.24604446  0.94932610  0.79648227     0.00600
H40         H  0.23917107  0.94431856  0.70201882     0.08300
H41         H  0.24800962  0.95636921  0.82419199     0.07300
N42         N  0.24396558  0.86958622  0.72453738    -0.36500
N43         N  0.24605576  0.85543923  0.75160296    -0.28700
C44         C  0.24677419  0.83861716  0.73364889    -0.03900
C45         C  0.24485079  0.84240091  0.69349343     0.04700
C46         C  0.24323861  0.86213428  0.68882069     0.02800
H47         H  0.25010908  0.82473531  0.74867229     0.07900
H48         H  0.24323156  0.87050531  0.66141417     0.06700
N49         N  0.27444100  0.13017494  0.84199648    -0.27700
N50         N  0.26942999  0.11191650  0.85330607    -0.35500
C51         C  0.26636162  0.11042517  0.89247518     0.00700
C52         C  0.26960532  0.12860003  0.90681769     0.06700
C53         C  0.27492519  0.14086726  0.87411805    -0.06400
H54         H  0.26226696  0.09705380  0.90932811     0.07400
H55         H  0.27871931  0.15632763  0.87373026     0.08600
Cu56       Cu  0.26637811  0.08961645  0.81554786     0.44200
Cu57       Cu  0.27910654  0.13875856  0.78268481     0.42000
Cu58       Cu  0.26532330  0.09949566  0.71213395     0.43900
N59         N  0.25996474  0.06845083  0.77527912    -0.35000
N60         N  0.25905131  0.07174519  0.73685587    -0.29300
C61         C  0.25343335  0.05483405  0.71925453    -0.05400
C62         C  0.25060113  0.04035338  0.74828015     0.06800
C63         C  0.25503973  0.04954781  0.78329774     0.00600
H64         H  0.25128237  0.05320799  0.68784173     0.08300
H65         H  0.25453954  0.04297151  0.81252303     0.07300
N66         N  0.27358072  0.12859312  0.69647721    -0.36500
N67         N  0.27942390  0.14257666  0.72144067    -0.28700
C68         C  0.28477050  0.15935621  0.70085429    -0.03900
C69         C  0.28190272  0.15582981  0.66113178     0.04700
C70         C  0.27468823  0.13617794  0.65958355     0.02800
H71         H  0.29050454  0.17312137  0.71385169     0.07900
H72         H  0.27069445  0.12795229  0.63343541     0.06700
N73         N  0.40921090  0.63449638  0.12738451    -0.27700
N74         N  0.41139645  0.61654742  0.11664879    -0.35500
C75         C  0.40389916  0.61601235  0.07769930     0.00700
C76         C  0.39673196  0.63442860  0.06281653     0.06700
C77         C  0.40038310  0.64587937  0.09511601    -0.06400
H78         H  0.40579162  0.60318957  0.06104807     0.07400
H79         H  0.39849705  0.66133116  0.09500151     0.08600
Cu80       Cu  0.42921695  0.59321894  0.15310095     0.44200
Cu81       Cu  0.42278457  0.64253233  0.18503394     0.42000
Cu82       Cu  0.47062212  0.60292430  0.24856584     0.43900
N83         N  0.45084196  0.57161563  0.19255309    -0.35000
N84         N  0.46630955  0.57508919  0.22857042    -0.29300
C85         C  0.47779663  0.55834822  0.24722149    -0.05400
C86         C  0.46926706  0.54366514  0.22147068     0.06800
C87         C  0.45229687  0.55267310  0.18708523     0.00600
H88         H  0.49164519  0.55696485  0.27715919     0.08300
H89         H  0.44228027  0.54595793  0.15991889     0.07300
N90         N  0.46660742  0.63136521  0.26442281    -0.36500
N91         N  0.44628450  0.64536683  0.24324920    -0.28700
C92         C  0.44575075  0.66110877  0.26495015    -0.03900
C93         C  0.46756626  0.65692347  0.30134730     0.04700
C94         C  0.48082808  0.63800099  0.29934522     0.02800
H95         H  0.42999243  0.67446003  0.25505941     0.07900
H96         H  0.49901442  0.62948050  0.32198632     0.06700
N97         N  0.10920604  0.37707440  0.16641741    -0.27700
N98         N  0.10311219  0.39462231  0.15140600    -0.35500
C99         C  0.10977995  0.39490042  0.11272965     0.00700
C100        C  0.12029228  0.37663233  0.10253965     0.06700
C101        C  0.11953547  0.36555547  0.13723991    -0.06400
H102        H  0.10441527  0.40725041  0.09299333     0.07400
H103        H  0.12397722  0.35022831  0.14068671     0.08600
Cu104      Cu  0.07690643  0.41663083  0.18171072     0.44200
Cu105      Cu  0.09628688  0.37021823  0.22504400     0.42000
Cu106      Cu  0.01099764  0.40285857  0.26573213     0.43900
N107        N  0.03890349  0.43583503  0.21112099    -0.35000
N108        N  0.01324411  0.43104047  0.24169429    -0.29300
C109        C  0.99358864  0.44704530  0.25405034    -0.05400
C110        C  0.00777515  0.46249587  0.22989818     0.06800
C111        C  0.03622991  0.45476735  0.20300615     0.00600
H112        H  0.97158093  0.44750335  0.27918739     0.08300
H113        H  0.05415308  0.46240013  0.17946066     0.07300
N114        N  0.03085867  0.37625623  0.29122266    -0.36500
N115        N  0.06660645  0.36638095  0.27977526    -0.28700
C116        C  0.07716245  0.35273377  0.30749910    -0.03900
C117        C  0.04535091  0.35328977  0.33744458     0.04700
C118        C  0.01600652  0.36827797  0.32530012     0.02800
H119        H  0.10672584  0.34339666  0.30606647     0.07900
H120        H  0.98632520  0.37339443  0.34035393     0.06700
N121        N  0.27931929  0.87095080  0.16462889    -0.27700
N122        N  0.27584403  0.88899932  0.15168989    -0.35500
C123        C  0.27409279  0.88969815  0.11230711     0.00700
C124        C  0.27641814  0.87122880  0.09974982     0.06700
C125        C  0.27975333  0.85961244  0.13357644    -0.06400
H126        H  0.27189136  0.90273322  0.09410417     0.07400
H127        H  0.28285863  0.84418570  0.13548181     0.08600
Cu128      Cu  0.27475576  0.91212805  0.18755266     0.44200
Cu129      Cu  0.28330036  0.86326600  0.22417569     0.42000
Cu130      Cu  0.27073031  0.90290731  0.29120642     0.43900
N131        N  0.27581258  0.93366374  0.22739782    -0.35000
N132        N  0.27458335  0.93046396  0.26580304    -0.29300
C133        C  0.27650855  0.94742930  0.28336781    -0.05400
C134        C  0.27886495  0.96188130  0.25440189     0.06800
C135        C  0.27831647  0.95265222  0.21937390     0.00600
H136        H  0.27592660  0.94911561  0.31471123     0.08300
H137        H  0.27962115  0.95926562  0.19018048     0.07300
N138        N  0.27304559  0.87402606  0.30861098    -0.36500
N139        N  0.28014769  0.85993329  0.28489800    -0.28700
C140        C  0.28338955  0.84337333  0.30636198    -0.03900
C141        C  0.27730858  0.84711865  0.34538259     0.04700
C142        C  0.27060334  0.86670537  0.34558884     0.02800
H143        H  0.29009973  0.82963964  0.29442760     0.07900
H144        H  0.26519870  0.87509340  0.37087162     0.06700
N145        N  0.27623447  0.13308386  0.13883525    -0.27700
N146        N  0.28382515  0.11504357  0.13103376    -0.35500
C147        C  0.28211015  0.11310119  0.09209003     0.00700
C148        C  0.27301328  0.13071583  0.07416321     0.06700
C149        C  0.26950494  0.14318708  0.10451142    -0.06400
H150        H  0.28747724  0.09980194  0.07780470     0.07400
H151        H  0.26318288  0.15840940  0.10183083     0.08600
Cu152      Cu  0.29541618  0.09336988  0.17267083     0.44200
Cu153      Cu  0.27740578  0.14226390  0.19655800     0.42000
Cu154      Cu  0.29733176  0.10354150  0.27339794     0.43900
N155        N  0.29697521  0.07217385  0.21632863    -0.35000
N156        N  0.29677757  0.07559607  0.25409633    -0.29300
C157        C  0.29419313  0.05869331  0.27468440    -0.05400
C158        C  0.29268813  0.04411379  0.24823875     0.06800
C159        C  0.29456717  0.05318771  0.21163998     0.00600
H160        H  0.29229295  0.05714594  0.30626631     0.08300
H161        H  0.29288592  0.04649560  0.18358230     0.07300
N162        N  0.29492351  0.13273043  0.28382420    -0.36500
N163        N  0.28596610  0.14651293  0.25689046    -0.28700
C164        C  0.28337442  0.16327596  0.27488679    -0.03900
C165        C  0.29153466  0.15996361  0.31491988     0.04700
C166        C  0.29899413  0.14044837  0.31929433     0.02800
H167        H  0.27479070  0.17680507  0.26002798     0.07900
H168        H  0.30523066  0.13229484  0.34660003     0.06700
C169        C  0.05102304  0.30481954  0.55950928     0.86100
C170        C  0.05234846  0.31742089  0.52171417    -0.54100
C171        C  0.04673620  0.30805827  0.48731054     0.09000
C172        C  0.04275747  0.28594402  0.49450569     0.20000
C173        C  0.50627913  0.29197601  0.55588932    -0.54800
C174        C  0.50093676  0.28235412  0.52198419     0.09100
C175        C  0.09008540  0.29021962  0.55487396    -0.58400
C176        C  0.08740420  0.28089156  0.52025933     0.09700
H177        H  0.05908692  0.33276223  0.52259415     0.14200
H178        H  0.03803845  0.27764114  0.46770542     0.00000
H179        H  0.48130168  0.29003329  0.57906971     0.14500
H180        H  0.11763226  0.28720621  0.57687902     0.14300
C181        C  0.28762904  0.21019563  0.44923231     0.86100
C182        C  0.24673633  0.22382757  0.45318533    -0.54100
C183        C  0.24718816  0.23334042  0.48746668     0.09000
C184        C  0.29079733  0.22873420  0.51494157     0.20000
C185        C  0.33290906  0.22260627  0.45598248    -0.54800
C186        C  0.33453310  0.23277836  0.48954859     0.09100
C187        C  0.28746308  0.19728541  0.48682596    -0.54400
C188        C  0.28897672  0.20656059  0.52133660     0.09700
H189        H  0.21851138  0.22530714  0.43100208     0.14200
H190        H  0.29228566  0.23664737  0.54248660     0.00000
H191        H  0.36278738  0.22267151  0.43719242     0.14500
H192        H  0.28736005  0.18176017  0.48628180     0.14300
N193        N  0.43308877  0.63395040  0.83691940    -0.27700
N194        N  0.44237901  0.61684059  0.85294940    -0.35500
C195        C  0.43159888  0.61639657  0.89088060     0.00700
C196        C  0.41486801  0.63408150  0.89928956     0.06700
C197        C  0.41635059  0.64499110  0.86451957    -0.06400
H198        H  0.43694927  0.60427402  0.91120350     0.07400
H199        H  0.40717318  0.65988111  0.85988361     0.08600
Cu200      Cu  0.47310576  0.59526601  0.82413083     0.44200
Cu201      Cu  0.44839602  0.64126249  0.77925839     0.42000
Cu202      Cu  0.03574342  0.60947271  0.73933879     0.43900
N203        N  0.00716058  0.57599743  0.79157026    -0.35000
N204        N  0.03142883  0.58105349  0.76035206    -0.29300
C205        C  0.04801115  0.56511849  0.74513901    -0.05400
C206        C  0.03323463  0.54943003  0.76814384     0.06800
C207        C  0.00756472  0.55685653  0.79724954     0.00600
H208        H  0.06841369  0.56492878  0.71903777     0.08300
H209        H  0.99009671  0.54891527  0.82063331     0.07300
N210        N  0.51736828  0.63633095  0.71561059    -0.36500
N211        N  0.48116932  0.64612216  0.72644300    -0.28700
C212        C  0.47128987  0.65985285  0.69874875    -0.03900
C213        C  0.50366822  0.65911796  0.66942362     0.04700
C214        C  0.53298877  0.64428295  0.68191908     0.02800
H215        H  0.44143522  0.66912034  0.69939803     0.07900
H216        H  0.06225785  0.63892003  0.66668358     0.06700
N217        N  0.09278278  0.37621315  0.87338612    -0.27700
N218        N  0.08897015  0.39404693  0.88437362    -0.35500
C219        C  0.09735684  0.39458360  0.92324453     0.00700
C220        C  0.10693148  0.37627134  0.93758912     0.06700
C221        C  0.10362747  0.36488119  0.90528475    -0.06400
H222        H  0.09651251  0.40741619  0.93995099     0.07400
H223        H  0.10882298  0.34959647  0.90495219     0.08600
Cu224      Cu  0.07373007  0.41737101  0.84703553     0.44200
Cu225      Cu  0.08321751  0.36857159  0.81530948     0.42000
Cu226      Cu  0.06020434  0.40899395  0.74504292     0.43900
N227        N  0.06352456  0.43929711  0.80510912    -0.35000
N228        N  0.05897367  0.43637424  0.76713536    -0.29300
C229        C  0.05429909  0.45343850  0.74753652    -0.05400
C230        C  0.05609429  0.46772699  0.77463225     0.06800
C231        C  0.06186770  0.45820680  0.81079593     0.00600
H232        H  0.05028627  0.45532291  0.71597938     0.08300
H233        H  0.06490900  0.46458611  0.83916942     0.07300
N234        N  0.06233789  0.38034568  0.73014012    -0.36500
N235        N  0.07088525  0.36577506  0.75530130    -0.28700
C236        C  0.07011361  0.34941040  0.73565245    -0.03900
C237        C  0.06038137  0.35389725  0.69638106     0.04700
C238        C  0.05579660  0.37359660  0.69392764     0.02800
H239        H  0.07639776  0.33531755  0.74892613     0.07900
H240        H  0.04869018  0.38239964  0.66764227     0.06700
C241        C  0.00555318  0.51675727  0.74914788    -0.02200
C242        C  0.04197427  0.52889782  0.76352169     0.07500
C243        C  0.08477084  0.52105867  0.77763177    -0.02300
C244        C  0.09023019  0.50103806  0.77939110    -0.02300
C245        C  0.05268321  0.48875075  0.76737032     0.07600
C246        C  0.01079412  0.49671021  0.75110929    -0.02500
Br247      Br  0.45920513  0.48023904  0.73401926    -0.01100
Br248      Br  0.44810315  0.52770387  0.72746726    -0.01100
Br249      Br  0.14947248  0.49048936  0.79793322    -0.01100
Br250      Br  0.13503586  0.53777022  0.79636354    -0.01100
C251        C  0.09915764  0.33376996  0.64872816    -0.02200
C252        C  0.05773407  0.34076801  0.66332103     0.07500
C253        C  0.01457384  0.33728538  0.64335134    -0.02300
C254        C  0.01236819  0.32627046  0.60949899    -0.02300
C255        C  0.05367741  0.31748638  0.59613953     0.07600
C256        C  0.09763422  0.32334388  0.61412475    -0.02500
Br257      Br  0.15644861  0.32201703  0.58816100    -0.01100
Br258      Br  0.15887851  0.33982203  0.67496704    -0.01100
Br259      Br  0.45309044  0.32658019  0.57952968    -0.01100
Br260      Br  0.95811054  0.34798693  0.66268038    -0.01100
C261        C  0.21233628  0.26538021  0.50198907    -0.02200
C262        C  0.20636816  0.24547310  0.49728356     0.07500
C263        C  0.16007770  0.23738758  0.49852695    -0.02300
C264        C  0.12091736  0.24893862  0.50415346    -0.02300
C265        C  0.12712250  0.26879529  0.50853110     0.07600
C266        C  0.17283485  0.27702616  0.50512918    -0.02500
Br267      Br  0.18085916  0.30447868  0.49905076    -0.01100
Br268      Br  0.27427569  0.27701008  0.50552295    -0.01100
Br269      Br  0.05869834  0.23742362  0.50532089    -0.01100
Br270      Br  0.14983485  0.21010748  0.49659101    -0.01100
C271        C  0.38788750  0.26151841  0.47335130    -0.02200
C272        C  0.37584552  0.24602617  0.49952920     0.07500
C273        C  0.40494841  0.24284199  0.53365146    -0.02300
C274        C  0.44614913  0.25426117  0.54043300    -0.02300
C275        C  0.45856518  0.26948760  0.51372072     0.07600
C276        C  0.42846462  0.27317382  0.48052867    -0.02500
Br277      Br  0.44023710  0.29509914  0.44580257    -0.01100
Br278      Br  0.34709893  0.26790773  0.42848466    -0.01100
Br279      Br  0.48647582  0.24832464  0.58606135    -0.01100
Br280      Br  0.38974583  0.22272746  0.57156278    -0.01100
C281        C  0.30817053  0.20422261  0.37665953    -0.02200
C282        C  0.28337211  0.19866873  0.41098650     0.07500
C283        C  0.25300317  0.18210663  0.40843966    -0.02300
C284        C  0.25557794  0.16969546  0.37699105    -0.02300
C285        C  0.28735223  0.17370134  0.34684791     0.07600
C286        C  0.31272747  0.19129512  0.34631765    -0.02500
Br287      Br  0.35525359  0.19766964  0.30458795    -0.01100
Br288      Br  0.32564914  0.23062857  0.36489406    -0.01100
Br289      Br  0.21294106  0.14766503  0.37404574    -0.01100
Br290      Br  0.20352318  0.17671697  0.44487120    -0.01100
C291        C  0.32555819  0.01239602  0.27033364    -0.02200
C292        C  0.28698815  0.02323534  0.25598681     0.07500
C293        C  0.24440352  0.01386403  0.24478790    -0.02300
C294        C  0.24109569  0.99371267  0.24619586    -0.02300
C295        C  0.28033275  0.98284370  0.25880293     0.07600
C296        C  0.32218969  0.99219882  0.27187044    -0.02500
Br297      Br  0.37592509  0.97735604  0.28925429    -0.01100
Br298      Br  0.38410536  0.02521405  0.28492631    -0.01100
Br299      Br  0.18287910  0.98092548  0.23042202    -0.01100
Br300      Br  0.19075863  0.02866769  0.22682220    -0.01100
C301        C  0.16098802  0.37873243  0.03937801    -0.02200
C302        C  0.12409846  0.37079013  0.06171752     0.07500
C303        C  0.08624972  0.36095398  0.04288586    -0.02300
C304        C  0.08292436  0.36092313  0.00155538    -0.02300
C305        C  0.11721903  0.37084971  0.97923844     0.07600
C306        C  0.15756758  0.37876499  0.99819888    -0.02500
Br307      Br  0.20706555  0.39052250  0.96756825    -0.01100
Br308      Br  0.21486936  0.39065485  0.06537364    -0.01100
Br309      Br  0.02893775  0.34908813  0.97558373    -0.01100
Br310      Br  0.03624272  0.34947577  0.07328670    -0.01100
C311        C  0.02959342  0.34906889  0.41013704    -0.02200
C312        C  0.04468094  0.34130756  0.37518840     0.07500
C313        C  0.05917150  0.32196936  0.37704569    -0.02300
C314        C  0.06407010  0.31172110  0.41361132    -0.02300
C315        C  0.04483311  0.31891897  0.44779840     0.07600
C316        C  0.02385772  0.33722446  0.44407830    -0.02500
Br317      Br  0.98133793  0.34590869  0.48228013    -0.01100
Br318      Br  0.02178483  0.37631633  0.41490450    -0.01100
Br319      Br  0.10108396  0.28888008  0.41523641    -0.01100
Br320      Br  0.06871727  0.30837304  0.32985339    -0.01100
C321        C  0.43020596  0.65057790  0.00254374    -0.02200
C322        C  0.39336218  0.63989911  0.02046105     0.07500
C323        C  0.35806205  0.63108035  0.99679417    -0.02300
C324        C  0.36280906  0.63078534  0.95599538    -0.02300
C325        C  0.40226191  0.63967602  0.93863100     0.07600
C326        C  0.43436688  0.65058239  0.96150161    -0.02500
Br327      Br  0.98688029  0.66375609  0.93712736    -0.01100
Br328      Br  0.97834277  0.66321284  0.03410811    -0.01100
Br329      Br  0.31698715  0.61709447  0.92394164    -0.01100
Br330      Br  0.30428907  0.61855372  0.02055861    -0.01100
C331        C  0.44127253  0.50920943  0.22287752    -0.02200
C332        C  0.47831996  0.52285986  0.22787853     0.07500
C333        C  0.02446218  0.51649833  0.23645018    -0.02300
C334        C  0.03367765  0.49671617  0.23857488    -0.02300
C335        C  0.99690040  0.48310599  0.23217610     0.07600
C336        C  0.45056440  0.48942213  0.22481906    -0.02500
Br337      Br  0.40020575  0.47104515  0.21465996    -0.01100
Br338      Br  0.37741107  0.51756992  0.21395447    -0.01100
Br339      Br  0.09704316  0.48827668  0.25026566    -0.01100
Br340      Br  0.07592293  0.53480806  0.24284525    -0.01100
C341        C  0.31174961  0.13692066  0.96964840    -0.02200
C342        C  0.26907371  0.13316206  0.94873935     0.07500
C343        C  0.22679406  0.13110629  0.96906870    -0.02300
C344        C  0.22747340  0.13213909  0.01024243    -0.02300
C345        C  0.27055695  0.13467185  0.03129935     0.07600
C346        C  0.31254136  0.13746420  0.01089567    -0.02500
Br347      Br  0.37159097  0.14065343  0.03985819    -0.01100
Br348      Br  0.36973544  0.13960549  0.94209465    -0.01100
Br349      Br  0.16984030  0.12894959  0.03818385    -0.01100
Br350      Br  0.16830442  0.12582844  0.94064286    -0.01100
C351        C  0.25594030  0.18559754  0.62274983    -0.02200
C352        C  0.28625364  0.16989075  0.62732236     0.07500
C353        C  0.32047123  0.16746577  0.59917075    -0.02300
C354        C  0.32303025  0.18006331  0.56588637    -0.02300
C355        C  0.29102491  0.19534659  0.56003711     0.07600
C356        C  0.25885134  0.19846426  0.58976442    -0.02500
Br357      Br  0.21717604  0.21983848  0.58592425    -0.01100
Br358      Br  0.20737573  0.18863812  0.66005291    -0.01100
Br359      Br  0.37293814  0.17668101  0.52970532    -0.01100
Br360      Br  0.36520134  0.14709696  0.60661465    -0.01100
C361        C  0.23619071  0.86018877  0.03811093    -0.02200
C362        C  0.27786872  0.86590012  0.05845888     0.07500
C363        C  0.31940151  0.86949247  0.03786573    -0.02300
C364        C  0.31818247  0.86923204  0.99665075    -0.02300
C365        C  0.27554542  0.86510484  0.97602409     0.07600
C366        C  0.23513082  0.85963283  0.99685938    -0.02500
Br367      Br  0.17735645  0.85297819  0.96870128    -0.01100
Br368      Br  0.17969284  0.85470730  0.06651705    -0.01100
Br369      Br  0.37440148  0.87532956  0.96823559    -0.01100
Br370      Br  0.37740073  0.87564864  0.06623681    -0.01100
C371        C  0.20555415  0.00968132  0.76109778    -0.02200
C372        C  0.24452502  0.01938745  0.74430996     0.07500
C373        C  0.28008120  0.00876756  0.72806724    -0.02300
C374        C  0.27833084  0.98855108  0.73117046    -0.02300
C375        C  0.24079991  0.97891112  0.75019917     0.07600
C376        C  0.20359014  0.98951435  0.76382650    -0.02500
Br377      Br  0.14964875  0.97636484  0.78612218    -0.01100
Br378      Br  0.15470567  0.02402312  0.78056858    -0.01100
Br379      Br  0.32944414  0.97419372  0.71231081    -0.01100
Br380      Br  0.33326873  0.02184174  0.70452033    -0.01100
C381        C  0.30270543  0.81161863  0.62120887    -0.02200
C382        C  0.26442317  0.80650802  0.59501121     0.07500
C383        C  0.22007454  0.81511022  0.60097108    -0.02300
C384        C  0.21328201  0.82585820  0.63434834    -0.02300
C385        C  0.25034944  0.82887939  0.66179065     0.07600
C386        C  0.29476086  0.82151246  0.65550737    -0.02500
Br387      Br  0.34619045  0.82652908  0.69279667    -0.01100
Br388      Br  0.36758510  0.81104713  0.60710319    -0.01100
Br389      Br  0.15266994  0.83667437  0.64293085    -0.01100
Br390      Br  0.16881767  0.81480818  0.56186946    -0.01100
C391        C  0.30896594  0.82517541  0.44648959    -0.02200
C392        C  0.28054912  0.80799422  0.44771182     0.07500
C393        C  0.25684712  0.80268617  0.41207834    -0.02300
C394        C  0.25345231  0.81597703  0.37979853    -0.02300
C395        C  0.27972671  0.83335205  0.37981601     0.07600
C396        C  0.30945721  0.83733867  0.41246754    -0.02500
Br397      Br  0.35311853  0.85909474  0.41002165    -0.01100
Br398      Br  0.35101838  0.83217678  0.48969463    -0.01100
Br399      Br  0.20925742  0.81089508  0.33677660    -0.01100
Br400      Br  0.23208744  0.77716683  0.40326283    -0.01100
C401        C  0.02692275  0.67160393  0.56284790    -0.02200
C402        C  0.50921244  0.69030861  0.55672945     0.07500
C403        C  0.49031092  0.69906804  0.58939549    -0.02300
C404        C  0.49221321  0.68960109  0.62691847    -0.02300
C405        C  0.50401924  0.66999594  0.63083003     0.07600
C406        C  0.01769054  0.66080535  0.59718781    -0.02500
Br407      Br  0.01825951  0.63317352  0.59462605    -0.01100
Br408      Br  0.07186952  0.66136320  0.52888010    -0.01100
Br409      Br  0.48139441  0.70420671  0.67250496    -0.01100
Br410      Br  0.45877449  0.72320048  0.58445558    -0.01100
C411        C  0.47106333  0.66051377  0.37391635    -0.02200
C412        C  0.47496381  0.66913144  0.33618779     0.07500
C413        C  0.49170841  0.68837718  0.33306833    -0.02300
C414        C  0.50193093  0.69876889  0.36743060    -0.02300
C415        C  0.50215130  0.68931427  0.40538741     0.07600
C416        C  0.49222847  0.66923990  0.40639301    -0.02500
Br417      Br  0.52599155  0.65143168  0.44061328    -0.01100
Br418      Br  0.43604579  0.63671918  0.38288783    -0.01100
Br419      Br  0.51791627  0.72570842  0.36096148    -0.01100
Br420      Br  0.50336219  0.70043192  0.28227853    -0.01100
C421        C  0.15409265  0.76322601  0.47994568    -0.02200
C422        C  0.18860920  0.75697863  0.50806414     0.07500
C423        C  0.17955846  0.73977961  0.53022510    -0.02300
C424        C  0.13963787  0.72808737  0.52103817    -0.02300
C425        C  0.10838325  0.73325615  0.48939206     0.07600
C426        C  0.11650052  0.75085037  0.46851550    -0.02500
Br427      Br  0.07518667  0.75865963  0.42511050    -0.01100
Br428      Br  0.15092116  0.79009902  0.46460544    -0.01100
Br429      Br  0.12809399  0.70509572  0.55245957    -0.01100
Br430      Br  0.21878996  0.73316451  0.57610493    -0.01100
C431        C  0.35282319  0.74069336  0.50153150    -0.02200
C432        C  0.35854460  0.75992790  0.51270004     0.07500
C433        C  0.40482839  0.76812341  0.51363266    -0.02300
C434        C  0.44401278  0.75746532  0.50367555    -0.02300
C435        C  0.43789063  0.73845996  0.49189783     0.07600
C436        C  0.39209643  0.72990806  0.49246816    -0.02500
Br437      Br  0.38270376  0.70272212  0.48460480    -0.01100
Br438      Br  0.29150484  0.72844017  0.49857949    -0.01100
Br439      Br  0.50627086  0.76914190  0.50626406    -0.01100
Br440      Br  0.41584677  0.79452243  0.52514031    -0.01100
C441        C  0.00980980  0.70079107  0.44351908     0.86100
C442        C  0.97495243  0.71715718  0.44559011    -0.54100
C443        C  0.97880972  0.72733214  0.47902844     0.09000
C444        C  0.52104180  0.72111118  0.50647827     0.20000
C445        C  0.55887215  0.71054290  0.44828158    -0.54800
C446        C  0.56466353  0.72142269  0.48065178     0.09100
C447        C  0.00228686  0.68956350  0.48306242    -0.54400
C448        C  0.51041038  0.69975859  0.51617668     0.09700
H449        H  0.94599913  0.71912829  0.42421358     0.14200
H450        H  0.52721490  0.72988390  0.53249405     0.00000
H451        H  0.58632772  0.70930862  0.42728688     0.14500
H452        H  0.98764530  0.67515829  0.48560484     0.14300
C453        C  0.76998480  0.79390752  0.55884894     0.86100
C454        C  0.72920893  0.77947289  0.55299392    -0.54100
C455        C  0.72938880  0.76996991  0.51902807     0.09000
C456        C  0.77365600  0.77498401  0.49420514     0.20000
C457        C  0.81350780  0.78093289  0.55683872    -0.54800
C458        C  0.81652437  0.77153897  0.52251190     0.09100
C459        C  0.76977713  0.80644620  0.52073870    -0.54400
C460        C  0.77382476  0.79702660  0.48663228     0.09700
H461        H  0.70146163  0.77715373  0.57385047     0.14200
H462        H  0.77629083  0.76659142  0.46787494     0.00000
H463        H  0.83847597  0.77812917  0.58085785     0.14500
H464        H  0.76649042  0.82189317  0.52112468     0.14300
N465        N  0.76038058  0.86839120  0.86910793    -0.27700
N466        N  0.76183477  0.88669772  0.87777562    -0.35500
C467        C  0.76850641  0.88806325  0.91669851     0.00700
C468        C  0.77130211  0.86979268  0.93349400     0.06700
C469        C  0.76584139  0.85757914  0.90260267    -0.06400
H470        H  0.77033579  0.90141549  0.93181650     0.07400
H471        H  0.76548433  0.84206708  0.90435805     0.08600
Cu472      Cu  0.75376156  0.90932639  0.83717926     0.44200
Cu473      Cu  0.75135612  0.85949505  0.81176346     0.42000
Cu474      Cu  0.74478296  0.89863018  0.73592946     0.43900
N475        N  0.74732871  0.93027025  0.79274183    -0.35000
N476        N  0.74463592  0.92649809  0.75508914    -0.29300
C477        C  0.74171058  0.94314149  0.73373456    -0.05400
C478        C  0.74245115  0.95802593  0.75939173     0.06800
C479        C  0.74604293  0.94932607  0.79648232     0.00600
H480        H  0.73917006  0.94431850  0.70201886     0.08300
H481        H  0.74800804  0.95636919  0.82419202     0.07300
N482        N  0.74396489  0.86958618  0.72453745    -0.36500
N483        N  0.74605520  0.85543918  0.75160300    -0.28700
C484        C  0.74677395  0.83861713  0.73364890    -0.03900
C485        C  0.74485065  0.84240089  0.69349344     0.04700
C486        C  0.74323817  0.86213427  0.68882074     0.02800
H487        H  0.75010893  0.82473528  0.74867227     0.07900
H488        H  0.74323104  0.87050530  0.66141424     0.06700
N489        N  0.77444152  0.13017485  0.84199630    -0.27700
N490        N  0.76943102  0.11191640  0.85330593    -0.35500
C491        C  0.76636283  0.11042505  0.89247506     0.00700
C492        C  0.76960611  0.12859993  0.90681753     0.06700
C493        C  0.77492555  0.14086718  0.87411786    -0.06400
H494        H  0.76226856  0.09705368  0.90932801     0.07400
H495        H  0.77871928  0.15632750  0.87373005     0.08600
Cu496      Cu  0.76637944  0.08961634  0.81554772     0.44200
Cu497      Cu  0.77910666  0.13875851  0.78268463     0.42000
Cu498      Cu  0.76532344  0.09949563  0.71213382     0.43900
N499        N  0.75996559  0.06845075  0.77527894    -0.35000
N500        N  0.75905169  0.07174514  0.73685570    -0.29300
C501        C  0.75343333  0.05483402  0.71925436    -0.05400
C502        C  0.75060134  0.04035333  0.74827994     0.06800
C503        C  0.75504049  0.04954773  0.78329758     0.00600
H504        H  0.75128187  0.05320797  0.68784141     0.08300
H505        H  0.75454053  0.04297146  0.81252269     0.07300
N506        N  0.77358076  0.12859308  0.69647703    -0.36500
N507        N  0.77942392  0.14257663  0.72144049    -0.28700
C508        C  0.78477050  0.15935617  0.70085410    -0.03900
C509        C  0.78190273  0.15582977  0.66113159     0.04700
C510        C  0.77468826  0.13617789  0.65958339     0.02800
H511        H  0.79050455  0.17312136  0.71385151     0.07900
H512        H  0.77069450  0.12795220  0.63343511     0.06700
N513        N  0.90921073  0.63449642  0.12738455    -0.27700
N514        N  0.91139635  0.61654749  0.11664880    -0.35500
C515        C  0.90389906  0.61601242  0.07769929     0.00700
C516        C  0.89673179  0.63442867  0.06281657     0.06700
C517        C  0.90038289  0.64587944  0.09511607    -0.06400
H518        H  0.90579156  0.60318971  0.06104811     0.07400
H519        H  0.89849680  0.66133115  0.09500161     0.08600
Cu520      Cu  0.92921697  0.59321898  0.15310088     0.44200
Cu521      Cu  0.92278442  0.64253235  0.18503399     0.42000
Cu522      Cu  0.97062221  0.60292432  0.24856575     0.43900
N523        N  0.95084211  0.57161566  0.19255295    -0.35000
N524        N  0.96630973  0.57508922  0.22857026    -0.29300
C525        C  0.97779688  0.55834825  0.24722133    -0.05400
C526        C  0.96926729  0.54366517  0.22147049     0.06800
C527        C  0.95229704  0.55267313  0.18708507     0.00600
H528        H  0.99164538  0.55696487  0.27715886     0.08300
H529        H  0.94228040  0.54595796  0.15991873     0.07300
N530        N  0.96660746  0.63136522  0.26442279    -0.36500
N531        N  0.94628449  0.64536683  0.24324922    -0.28700
C532        C  0.94575079  0.66110877  0.26495018    -0.03900
C533        C  0.96756635  0.65692348  0.30134730     0.04700
C534        C  0.98082817  0.63800100  0.29934519     0.02800
H535        H  0.92999245  0.67446004  0.25505946     0.07900
H536        H  0.99901454  0.62948050  0.32198628     0.06700
N537        N  0.60920578  0.37707437  0.16641734    -0.27700
N538        N  0.60311177  0.39462225  0.15140587    -0.35500
C539        C  0.60977949  0.39490034  0.11272950     0.00700
C540        C  0.62029196  0.37663224  0.10253957     0.06700
C541        C  0.61953527  0.36555542  0.13723988    -0.06400
H542        H  0.60441472  0.40725025  0.09299323     0.07400
H543        H  0.62397714  0.35022826  0.14068674     0.08600
Cu544      Cu  0.57690589  0.41663076  0.18171053     0.44200
Cu545      Cu  0.59628675  0.37021824  0.22504398     0.42000
Cu546      Cu  0.51099736  0.40285854  0.26573210     0.43900
N547        N  0.53890308  0.43583499  0.21112087    -0.35000
N548        N  0.51324379  0.43104043  0.24169424    -0.29300
C549        C  0.49358839  0.44704527  0.25405033    -0.05400
C550        C  0.50777486  0.46249584  0.22989815     0.06800
C551        C  0.53622952  0.45476731  0.20300607     0.00600
H552        H  0.47158075  0.44750333  0.27918744     0.08300
H553        H  0.55415271  0.46240011  0.17946046     0.07300
N554        N  0.53085842  0.37625619  0.29122260    -0.36500
N555        N  0.56660626  0.36638094  0.27977522    -0.28700
C556        C  0.57716224  0.35273375  0.30749905    -0.03900
C557        C  0.54535065  0.35328972  0.33744449     0.04700
C558        C  0.51600624  0.36827791  0.32530002     0.02800
H559        H  0.60672568  0.34339666  0.30606643     0.07900
H560        H  0.48632485  0.37339435  0.34035381     0.06700
N561        N  0.77931916  0.87095090  0.16462896    -0.27700
N562        N  0.77584422  0.88899943  0.15168992    -0.35500
C563        C  0.77409274  0.88969822  0.11230716     0.00700
C564        C  0.77641758  0.87122886  0.09974989     0.06700
C565        C  0.77975273  0.85961250  0.13357654    -0.06400
H566        H  0.77189144  0.90273335  0.09410410     0.07400
H567        H  0.78285765  0.84418581  0.13548192     0.08600
Cu568      Cu  0.77475654  0.91212819  0.18755265     0.44200
Cu569      Cu  0.78330037  0.86326609  0.22417573     0.42000
Cu570      Cu  0.77073079  0.90290744  0.29120641     0.43900
N571        N  0.77581346  0.93366388  0.22739784    -0.35000
N572        N  0.77458411  0.93046409  0.26580305    -0.29300
C573        C  0.77650932  0.94742943  0.28336784    -0.05400
C574        C  0.77886586  0.96188143  0.25440195     0.06800
C575        C  0.77831745  0.95265236  0.21937395     0.00600
H576        H  0.77592729  0.94911573  0.31471126     0.08300
H577        H  0.77962223  0.95926576  0.19018055     0.07300
N578        N  0.77304576  0.87402618  0.30861101    -0.36500
N579        N  0.78014772  0.85993339  0.28489803    -0.28700
C580        C  0.78338944  0.84337344  0.30636201    -0.03900
C581        C  0.77730853  0.84711876  0.34538261     0.04700
C582        C  0.77060346  0.86670550  0.34558886     0.02800
H583        H  0.79009953  0.82963968  0.29442758     0.07900
H584        H  0.76519891  0.87509354  0.37087166     0.06700
N585        N  0.77623551  0.13308388  0.13883506    -0.27700
N586        N  0.78382651  0.11504360  0.13103359    -0.35500
C587        C  0.78211148  0.11310121  0.09208988     0.00700
C588        C  0.77301426  0.13071582  0.07416303     0.06700
C589        C  0.76950575  0.14318705  0.10451124    -0.06400
H590        H  0.78747883  0.09980195  0.07780451     0.07400
H591        H  0.76318341  0.15840943  0.10183062     0.08600
Cu592      Cu  0.79541801  0.09336995  0.17267064     0.44200
Cu593      Cu  0.77740680  0.14226395  0.19655780     0.42000
Cu594      Cu  0.79733304  0.10354161  0.27339769     0.43900
N595        N  0.79697716  0.07217394  0.21632849    -0.35000
N596        N  0.79677923  0.07559617  0.25409616    -0.29300
C597        C  0.79419468  0.05869344  0.27468426    -0.05400
C598        C  0.79268993  0.04411390  0.24823869     0.06800
C599        C  0.79456923  0.05318778  0.21163987     0.00600
H600        H  0.79229417  0.05714608  0.30626629     0.08300
H601        H  0.79288810  0.04649569  0.18358239     0.07300
N602        N  0.79492459  0.13273053  0.28382397    -0.36500
N603        N  0.78596709  0.14651301  0.25689027    -0.28700
C604        C  0.78337526  0.16327604  0.27488660    -0.03900
C605        C  0.79153552  0.15996368  0.31491970     0.04700
C606        C  0.79899515  0.14044845  0.31929415     0.02800
H607        H  0.77479150  0.17680504  0.26002791     0.07900
H608        H  0.80523170  0.13229496  0.34659971     0.06700
C609        C  0.55102304  0.30481943  0.55950913     0.86100
C610        C  0.55234839  0.31742080  0.52171404    -0.54100
C611        C  0.54673616  0.30805819  0.48731039     0.09000
C612        C  0.54275752  0.28594393  0.49450551     0.20000
C613        C  0.00627908  0.29197615  0.55588948    -0.54800
C614        C  0.00093671  0.28235425  0.52198436     0.09100
C615        C  0.59008546  0.29021954  0.55487378    -0.58400
C616        C  0.58740428  0.28089149  0.52025914     0.09700
H617        H  0.55908678  0.33276215  0.52259403     0.14200
H618        H  0.53803852  0.27764106  0.46770523     0.00000
H619        H  0.98130164  0.29003345  0.57906984     0.14500
H620        H  0.61763229  0.28720615  0.57687882     0.14300
C621        C  0.78762947  0.21019565  0.44923220     0.86100
C622        C  0.74673668  0.22382757  0.45318517    -0.54100
C623        C  0.74718840  0.23334041  0.48746653     0.09000
C624        C  0.79079750  0.22873420  0.51494148     0.20000
C625        C  0.83290943  0.22260632  0.45598246    -0.54800
C626        C  0.83453332  0.23277839  0.48954859     0.09100
C627        C  0.78746347  0.19728541  0.48682583    -0.54400
C628        C  0.78897698  0.20656058  0.52133648     0.09700
H629        H  0.71851183  0.22530713  0.43100190     0.14200
H630        H  0.79228574  0.23664735  0.54248653     0.00000
H631        H  0.86278779  0.22267157  0.43719248     0.14500
H632        H  0.78736052  0.18176018  0.48628164     0.14300
N633        N  0.93308830  0.63395050  0.83691937    -0.27700
N634        N  0.94237841  0.61684066  0.85294928    -0.35500
C635        C  0.93159835  0.61639662  0.89088051     0.00700
C636        C  0.91486763  0.63408156  0.89928956     0.06700
C637        C  0.91635026  0.64499120  0.86451960    -0.06400
H638        H  0.93694867  0.60427404  0.91120334     0.07400
H639        H  0.90717298  0.65988120  0.85988373     0.08600
Cu640      Cu  0.97310493  0.59526607  0.82413059     0.44200
Cu641      Cu  0.94839550  0.64126261  0.77925834     0.42000
Cu642      Cu  0.53574387  0.60947262  0.73933875     0.43900
N643        N  0.50716139  0.57599737  0.79157049    -0.35000
N644        N  0.53142942  0.58105340  0.76035216    -0.29300
C645        C  0.54801162  0.56511839  0.74513908    -0.05400
C646        C  0.53323528  0.54942994  0.76814405     0.06800
C647        C  0.50756558  0.55685647  0.79724985     0.00600
H648        H  0.56841396  0.56492866  0.71903771     0.08300
H649        H  0.49009769  0.54891524  0.82063369     0.07300
N650        N  0.01736785  0.63633104  0.71561063    -0.36500
N651        N  0.98116888  0.64612225  0.72644298    -0.28700
C652        C  0.97128947  0.65985293  0.69874869    -0.03900
C653        C  0.00366789  0.65911803  0.66942361     0.04700
C654        C  0.03298842  0.64428302  0.68191913     0.02800
H655        H  0.94143488  0.66912041  0.69939793     0.07900
H656        H  0.56225822  0.63891996  0.66668346     0.06700
N657        N  0.59278240  0.37621298  0.87338604    -0.27700
N658        N  0.58896967  0.39404674  0.88437355    -0.35500
C659        C  0.59735629  0.39458341  0.92324446     0.00700
C660        C  0.60693098  0.37627116  0.93758905     0.06700
C661        C  0.60362708  0.36488101  0.90528467    -0.06400
H662        H  0.59651191  0.40741599  0.93995092     0.07400
H663        H  0.60882267  0.34959632  0.90495211     0.08600
Cu664      Cu  0.57372956  0.41737082  0.84703546     0.44200
Cu665      Cu  0.58321723  0.36857144  0.81530936     0.42000
Cu666      Cu  0.56020400  0.40899383  0.74504280     0.43900
N667        N  0.56352420  0.43929695  0.80510910    -0.35000
N668        N  0.55897337  0.43637411  0.76713531    -0.29300
C669        C  0.55429897  0.45343839  0.74753652    -0.05400
C670        C  0.55609425  0.46772686  0.77463229     0.06800
C671        C  0.56186749  0.45820663  0.81079595     0.00600
H672        H  0.55028625  0.45532282  0.71597937     0.08300
H673        H  0.56490881  0.46458594  0.83916952     0.07300
N674        N  0.56233758  0.38034555  0.73014001    -0.36500
N675        N  0.57088496  0.36577494  0.75530117    -0.28700
C676        C  0.57011335  0.34941028  0.73565232    -0.03900
C677        C  0.56038111  0.35389712  0.69638093     0.04700
C678        C  0.55579630  0.37359648  0.69392749     0.02800
H679        H  0.57639752  0.33531744  0.74892597     0.07900
H680        H  0.54868993  0.38239947  0.66764229     0.06700
C681        C  0.50555358  0.51675723  0.74914800    -0.02200
C682        C  0.54197475  0.52889772  0.76352187     0.07500
C683        C  0.58477123  0.52105851  0.77763200    -0.02300
C684        C  0.59023041  0.50103789  0.77939130    -0.02300
C685        C  0.55268337  0.48875063  0.76737043     0.07600
C686        C  0.51079437  0.49671016  0.75110936    -0.02500
Br687      Br  0.95920497  0.48023902  0.73401932    -0.01100
Br688      Br  0.94810267  0.52770383  0.72746708    -0.01100
Br689      Br  0.64947256  0.49048909  0.79793353    -0.01100
Br690      Br  0.63503635  0.53776999  0.79636385    -0.01100
C691        C  0.59915749  0.33376988  0.64872803    -0.02200
C692        C  0.55773388  0.34076790  0.66332089     0.07500
C693        C  0.51457367  0.33728522  0.64335120    -0.02300
C694        C  0.51236808  0.32627031  0.60949886    -0.02300
C695        C  0.55367735  0.31748626  0.59613939     0.07600
C696        C  0.59763413  0.32334380  0.61412462    -0.02500
Br697      Br  0.65644856  0.32201697  0.58816091    -0.01100
Br698      Br  0.65887833  0.33982201  0.67496691    -0.01100
Br699      Br  0.95309057  0.32658040  0.57952979    -0.01100
Br700      Br  0.45811031  0.34798672  0.66268027    -0.01100
C701        C  0.71233643  0.26538018  0.50198895    -0.02200
C702        C  0.70636833  0.24547307  0.49728334     0.07500
C703        C  0.66007788  0.23738755  0.49852663    -0.02300
C704        C  0.62091752  0.24893857  0.50415317    -0.02300
C705        C  0.62712262  0.26879524  0.50853090     0.07600
C706        C  0.67283497  0.27702612  0.50512905    -0.02500
Br707      Br  0.68085925  0.30447864  0.49905073    -0.01100
Br708      Br  0.77427581  0.27701007  0.50552297    -0.01100
Br709      Br  0.55869851  0.23742356  0.50532054    -0.01100
Br710      Br  0.64983503  0.21010746  0.49659049    -0.01100
C711        C  0.88788758  0.26151849  0.47335139    -0.02200
C712        C  0.87584563  0.24602623  0.49952926     0.07500
C713        C  0.90494844  0.24284208  0.53365157    -0.02300
C714        C  0.94614909  0.25426129  0.54043318    -0.02300
C715        C  0.95856514  0.26948773  0.51372090     0.07600
C716        C  0.92846463  0.27317393  0.48052882    -0.02500
Br717      Br  0.94023705  0.29509928  0.44580278    -0.01100
Br718      Br  0.84709909  0.26790778  0.42848469    -0.01100
Br719      Br  0.98647568  0.24832481  0.58606162    -0.01100
Br720      Br  0.88974587  0.22272753  0.57156285    -0.01100
C721        C  0.80817116  0.20422265  0.37665944    -0.02200
C722        C  0.78337268  0.19866875  0.41098637     0.07500
C723        C  0.75300381  0.18210664  0.40843948    -0.02300
C724        C  0.75557869  0.16969548  0.37699086    -0.02300
C725        C  0.78735298  0.17370139  0.34684775     0.07600
C726        C  0.81272815  0.19129518  0.34631753    -0.02500
Br727      Br  0.85525423  0.19766976  0.30458782    -0.01100
Br728      Br  0.82564984  0.23062862  0.36489406    -0.01100
Br729      Br  0.71294197  0.14766500  0.37404554    -0.01100
Br730      Br  0.70352375  0.17671694  0.44487095    -0.01100
C731        C  0.82555938  0.01239608  0.27033404    -0.02200
C732        C  0.78698963  0.02323546  0.25598678     0.07500
C733        C  0.74440503  0.01386423  0.24478755    -0.02300
C734        C  0.74109697  0.99371287  0.24619557    -0.02300
C735        C  0.78033377  0.98284383  0.25880301     0.07600
C736        C  0.82219063  0.99219888  0.27187092    -0.02500
Br737      Br  0.87592563  0.97735602  0.28925544    -0.01100
Br738      Br  0.88410650  0.02521401  0.28492720    -0.01100
Br739      Br  0.68288040  0.98092578  0.23042134    -0.01100
Br740      Br  0.69076049  0.02866798  0.22682136    -0.01100
C741        C  0.66098762  0.37873235  0.03937790    -0.02200
C742        C  0.62409814  0.37079002  0.06171746     0.07500
C743        C  0.58624943  0.36095383  0.04288585    -0.02300
C744        C  0.58292404  0.36092293  0.00155537    -0.02300
C745        C  0.61721862  0.37084954  0.97923838     0.07600
C746        C  0.65756712  0.37876489  0.99819877    -0.02500
Br747      Br  0.70706492  0.39052249  0.96756808    -0.01100
Br748      Br  0.71486893  0.39065483  0.06537346    -0.01100
Br749      Br  0.52893751  0.34908784  0.97558379    -0.01100
Br750      Br  0.53624249  0.34947562  0.07328676    -0.01100
C751        C  0.52959308  0.34906880  0.41013694    -0.02200
C752        C  0.54468068  0.34130749  0.37518829     0.07500
C753        C  0.55917138  0.32196931  0.37704557    -0.02300
C754        C  0.56407004  0.31172105  0.41361119    -0.02300
C755        C  0.54483301  0.31891890  0.44779827     0.07600
C756        C  0.52385748  0.33722436  0.44407820    -0.02500
Br757      Br  0.48133765  0.34590853  0.48228006    -0.01100
Br758      Br  0.52178424  0.37631623  0.41490442    -0.01100
Br759      Br  0.60108405  0.28888007  0.41523627    -0.01100
Br760      Br  0.56871723  0.30837301  0.32985326    -0.01100
C761        C  0.93020577  0.65057795  0.00254375    -0.02200
C762        C  0.89336197  0.63989919  0.02046110     0.07500
C763        C  0.85806180  0.63108043  0.99679426    -0.02300
C764        C  0.86280880  0.63078539  0.95599546    -0.02300
C765        C  0.90226164  0.63967606  0.93863105     0.07600
C766        C  0.93436666  0.65058243  0.96150162    -0.02500
Br767      Br  0.48688051  0.66375608  0.93712739    -0.01100
Br768      Br  0.47834285  0.66321284  0.03410812    -0.01100
Br769      Br  0.81698687  0.61709448  0.92394181    -0.01100
Br770      Br  0.80428881  0.61855386  0.02055875    -0.01100
C771        C  0.94127278  0.50920945  0.22287743    -0.02200
C772        C  0.97832021  0.52285988  0.22787837     0.07500
C773        C  0.52446192  0.51649829  0.23645034    -0.02300
C774        C  0.53367739  0.49671613  0.23857494    -0.02300
C775        C  0.49690013  0.48310597  0.23217611     0.07600
C776        C  0.95056466  0.48942215  0.22481902    -0.02500
Br777      Br  0.90020603  0.47104515  0.21465995    -0.01100
Br778      Br  0.87741130  0.51756992  0.21395444    -0.01100
Br779      Br  0.59704291  0.48827663  0.25026565    -0.01100
Br780      Br  0.57592267  0.53480802  0.24284554    -0.01100
C781        C  0.81175056  0.13692048  0.96964820    -0.02200
C782        C  0.76907459  0.13316197  0.94873918     0.07500
C783        C  0.72679493  0.13110634  0.96906855    -0.02300
C784        C  0.72747433  0.13213918  0.01024226    -0.02300
C785        C  0.77055793  0.13467182  0.03129917     0.07600
C786        C  0.81254237  0.13746404  0.01089546    -0.02500
Br787      Br  0.87159205  0.14065314  0.03985793    -0.01100
Br788      Br  0.86973637  0.13960518  0.94209439    -0.01100
Br789      Br  0.66984121  0.12894988  0.03818371    -0.01100
Br790      Br  0.66830522  0.12582860  0.94064272    -0.01100
C791        C  0.75594029  0.18559746  0.62274959    -0.02200
C792        C  0.78625368  0.16989070  0.62732218     0.07500
C793        C  0.82047137  0.16746574  0.59917063    -0.02300
C794        C  0.82303046  0.18006329  0.56588628    -0.02300
C795        C  0.79102509  0.19534656  0.56003697     0.07600
C796        C  0.75885140  0.19846420  0.58976421    -0.02500
Br797      Br  0.71717601  0.21983839  0.58592396    -0.01100
Br798      Br  0.70737555  0.18863800  0.66005255    -0.01100
Br799      Br  0.87293849  0.17668103  0.52970534    -0.01100
Br800      Br  0.86520148  0.14709694  0.60661459    -0.01100
C801        C  0.73618952  0.86018877  0.03811130    -0.02200
C802        C  0.77786773  0.86590012  0.05845897     0.07500
C803        C  0.81940034  0.86949240  0.03786554    -0.02300
C804        C  0.81818092  0.86923193  0.99665057    -0.02300
C805        C  0.77554367  0.86510475  0.97602420     0.07600
C806        C  0.73512927  0.85963276  0.99685976    -0.02500
Br807      Br  0.67735471  0.85297803  0.96870202    -0.01100
Br808      Br  0.67969187  0.85470740  0.06651779    -0.01100
Br809      Br  0.87439966  0.87532941  0.96823501    -0.01100
Br810      Br  0.87739986  0.87564852  0.06623625    -0.01100
C811        C  0.70555382  0.00968142  0.76109767    -0.02200
C812        C  0.74452479  0.01938743  0.74430977     0.07500
C813        C  0.78008072  0.00876741  0.72806700    -0.02300
C814        C  0.77833004  0.98855094  0.73117030    -0.02300
C815        C  0.74079901  0.97891110  0.75019912     0.07600
C816        C  0.70358945  0.98951445  0.76382646    -0.02500
Br817      Br  0.64964785  0.97636512  0.78612218    -0.01100
Br818      Br  0.65470567  0.02402340  0.78056851    -0.01100
Br819      Br  0.82944304  0.97419343  0.71231060    -0.01100
Br820      Br  0.83326830  0.02184144  0.70451985    -0.01100
C821        C  0.80270544  0.81161874  0.62120873    -0.02200
C822        C  0.76442313  0.80650803  0.59501120     0.07500
C823        C  0.72007442  0.81511015  0.60097118    -0.02300
C824        C  0.71328188  0.82585810  0.63434845    -0.02300
C825        C  0.75034939  0.82887940  0.66179064     0.07600
C826        C  0.79476088  0.82151259  0.65550722    -0.02500
Br827      Br  0.84619055  0.82652936  0.69279635    -0.01100
Br828      Br  0.86758507  0.81104729  0.60710292    -0.01100
Br829      Br  0.65266966  0.83667410  0.64293119    -0.01100
Br830      Br  0.66881744  0.81480804  0.56186966    -0.01100
C831        C  0.80896580  0.82517549  0.44648962    -0.02200
C832        C  0.78054897  0.80799431  0.44771181     0.07500
C833        C  0.75684695  0.80268627  0.41207833    -0.02300
C834        C  0.75345215  0.81597715  0.37979854    -0.02300
C835        C  0.77972659  0.83335216  0.37981604     0.07600
C836        C  0.80945711  0.83733876  0.41246758    -0.02500
Br837      Br  0.85311851  0.85909480  0.41002171    -0.01100
Br838      Br  0.85101818  0.83217686  0.48969470    -0.01100
Br839      Br  0.70925720  0.81089523  0.33677664    -0.01100
Br840      Br  0.73208721  0.77716695  0.40326279    -0.01100
C841        C  0.52692286  0.67160389  0.56284788    -0.02200
C842        C  0.00921231  0.69030865  0.55672943     0.07500
C843        C  0.99031072  0.69906809  0.58939543    -0.02300
C844        C  0.99221294  0.68960114  0.62691842    -0.02300
C845        C  0.00401900  0.66999600  0.63083002     0.07600
C846        C  0.51769069  0.66080529  0.59718779    -0.02500
Br847      Br  0.51825963  0.63317347  0.59462601    -0.01100
Br848      Br  0.57186961  0.66136316  0.52888005    -0.01100
Br849      Br  0.98139395  0.70420677  0.67250486    -0.01100
Br850      Br  0.95877426  0.72320052  0.58445544    -0.01100
C851        C  0.97106341  0.66051378  0.37391634    -0.02200
C852        C  0.97496393  0.66913144  0.33618779     0.07500
C853        C  0.99170859  0.68837717  0.33306832    -0.02300
C854        C  0.00193111  0.69876889  0.36743058    -0.02300
C855        C  0.00215140  0.68931428  0.40538740     0.07600
C856        C  0.99222853  0.66923991  0.40639301    -0.02500
Br857      Br  0.02599152  0.65143168  0.44061334    -0.01100
Br858      Br  0.93604585  0.63671919  0.38288780    -0.01100
Br859      Br  0.01791656  0.72570841  0.36096145    -0.01100
Br860      Br  0.00336243  0.70043190  0.28227851    -0.01100
C861        C  0.65409259  0.76322603  0.47994567    -0.02200
C862        C  0.68860920  0.75697865  0.50806407     0.07500
C863        C  0.67955853  0.73977960  0.53022499    -0.02300
C864        C  0.63963796  0.72808735  0.52103805    -0.02300
C865        C  0.60838326  0.73325615  0.48939201     0.07600
C866        C  0.61650048  0.75085038  0.46851549    -0.02500
Br867      Br  0.57518659  0.75865963  0.42511051    -0.01100
Br868      Br  0.65092099  0.79009905  0.46460552    -0.01100
Br869      Br  0.62809424  0.70509566  0.55245934    -0.01100
Br870      Br  0.71879012  0.73316448  0.57610475    -0.01100
C871        C  0.85282321  0.74069344  0.50153129    -0.02200
C872        C  0.85854462  0.75992797  0.51269987     0.07500
C873        C  0.90482842  0.76812348  0.51363248    -0.02300
C874        C  0.94401281  0.75746539  0.50367536    -0.02300
C875        C  0.93789065  0.73846002  0.49189766     0.07600
C876        C  0.89209644  0.72990814  0.49246796    -0.02500
Br877      Br  0.88270374  0.70272220  0.48460454    -0.01100
Br878      Br  0.79150486  0.72844026  0.49857919    -0.01100
Br879      Br  0.00627089  0.76914197  0.50626382    -0.01100
Br880      Br  0.91584681  0.79452251  0.52514010    -0.01100
loop_ 
_geom_bond_atom_site_label_1 
_geom_bond_atom_site_label_2 
_geom_bond_distance 
_geom_bond_site_symmetry_2 
_ccdc_geom_bond_type 
C1            C2   1.536       .  S
C1            C7   1.551       .  S
C1          C445   1.543       .  S
C1          C415   1.562       .  S
C2            H9   1.087       .  S
C2            C3   1.368       .  D
C3          C444   1.555       .  S
C3          C435   1.503       .  S
C4            C8   1.538       .  S
C4            C6   1.546       .  S
C4          C443   1.555   1_455  S
C4           H10   1.106       .  S
C5          C441   1.543       .  S
C5           H11   1.086       .  S
C5            C6   1.369       .  D
C6          C425   1.503       .  S
C7           H12   1.080       .  S
C7          C448   1.370       .  D
C8          C447   1.370       .  D
C8          C842   1.509       .  S
C13          C14   1.530       .  S
C13          C19   1.537       .  S
C13          C17   1.557       .  S
C13         C382   1.560       .  S
C14          H21   1.086       .  S
C14          C15   1.359       .  D
C15          C16   1.567       .  S
C15         C422   1.500       .  S
C16          C20   1.549       .  S
C16          C18   1.544       .  S
C16          H22   1.099       .  S
C17          H23   1.079       .  S
C17          C18   1.372       .  D
C18         C432   1.515       .  S
C19          H24   1.085       .  S
C19          C20   1.370       .  D
C20         C392   1.521       .  S
N25          N26   1.323       .  A
N25          C29   1.349       .  A
N25         Cu33   2.082       .  S
N26          C27   1.342       .  A
N26         Cu32   2.068       .  S
C27          C28   1.379       .  A
C27          H30   1.083       .  S
C28          C29   1.385       .  A
C28         C365   1.475       .  S
C29          H31   1.082       .  S
Cu32         N35   2.068       .  S
Cu33         N43   2.083       .  S
Cu34         N36   2.078       .  S
Cu34         N42   2.079       .  S
N35          N36   1.321       .  A
N35          C39   1.343       .  A
N36          C37   1.348       .  A
C37          C38   1.385       .  A
C37          H40   1.082       .  S
C38          C39   1.382       .  A
C38         C375   1.480       .  S
C39          H41   1.083       .  S
N42          N43   1.324       .  A
N42          C46   1.344       .  A
N43          C44   1.348       .  A
C44          C45   1.384       .  A
C44          H47   1.082       .  S
C45          C46   1.382       .  A
C45         C385   1.480       .  S
C46          H48   1.082       .  S
N49          N50   1.322       .  A
N49          C53   1.351       .  A
N49         Cu57   2.094       .  S
N50          C51   1.342       .  A
N50         Cu56   2.060       .  S
C51          C52   1.378       .  A
C51          H54   1.082       .  S
C52          C53   1.388       .  A
C52         C342   1.479       .  S
C53          H55   1.081       .  S
Cu56         N59   2.059       .  S
Cu57         N67   2.096       .  S
Cu58         N60   2.086       .  S
Cu58         N66   2.088       .  S
N59          N60   1.321       .  A
N59          C63   1.341       .  A
N60          C61   1.350       .  A
C61          C62   1.388       .  A
C61          H64   1.082       .  S
C62          C63   1.380       .  A
C62         C372   1.481       .  S
C63          H65   1.081       .  S
N66          N67   1.325       .  A
N66          C70   1.346       .  A
N67          C68   1.348       .  A
C68          C69   1.387       .  A
C68          H71   1.081       .  S
C69          C70   1.385       .  A
C69         C352   1.490       .  S
C70          H72   1.082       .  S
N73          N74   1.323       .  A
N73          C77   1.350       .  A
N73         Cu81   2.088       .  S
N74          C75   1.340       .  A
N74         Cu80   2.069       .  S
C75          C76   1.379       .  A
C75          H78   1.083       .  S
C76          C77   1.387       .  A
C76         C322   1.480       .  S
C77          H79   1.081       .  S
Cu80         N83   2.069       .  S
Cu81         N91   2.088       .  S
Cu82         N84   2.085       .  S
Cu82         N90   2.086       .  S
N83          N84   1.320       .  A
N83          C87   1.345       .  A
N84          C85   1.349       .  A
C85          C86   1.389       .  A
C85          H88   1.083       .  S
C86          C87   1.384       .  A
C86         C332   1.487       .  S
C87          H89   1.082       .  S
N90          N91   1.323       .  A
N90          C94   1.341       .  A
N91          C92   1.351       .  A
C92          C93   1.391       .  A
C92          H95   1.080       .  S
C93          C94   1.388       .  A
C93         C412   1.497       .  S
C94          H96   1.080       .  S
N97          N98   1.321       .  A
N97         C101   1.350       .  A
N97        Cu105   2.081       .  S
N98          C99   1.339       .  A
N98        Cu104   2.057       .  S
C99         C100   1.378       .  A
C99         H102   1.082       .  S
C100        C101   1.387       .  A
C100        C302   1.476       .  S
C101        H103   1.081       .  S
Cu104       N107   2.058       .  S
Cu105       N115   2.082       .  S
Cu106       N108   2.100       .  S
Cu106       N114   2.099       .  S
N107        N108   1.322       .  A
N107        C111   1.342       .  A
N108        C109   1.351   1_455  A
C109        C110   1.390   1_655  A
C109        H112   1.082       .  S
C110        C111   1.380       .  A
C110        C335   1.485   1_455  S
C111        H113   1.081       .  S
N114        N115   1.322       .  A
N114        C118   1.345       .  A
N115        C116   1.346       .  A
C116        C117   1.391       .  A
C116        H119   1.080       .  S
C117        C118   1.394       .  A
C117        C312   1.506       .  S
C118        H120   1.079   1_455  S
N121        N122   1.322       .  A
N121        C125   1.349       .  A
N121       Cu129   2.079       .  S
N122        C123   1.342       .  A
N122       Cu128   2.067       .  S
C123        C124   1.379       .  A
C123        H126   1.082       .  S
C124        C125   1.384       .  A
C124        C362   1.474       .  S
C125        H127   1.082       .  S
Cu128       N131   2.067       .  S
Cu129       N139   2.080       .  S
Cu130       N132   2.078       .  S
Cu130       N138   2.080       .  S
N131        N132   1.322       .  A
N131        C135   1.343       .  A
N132        C133   1.348       .  A
C133        C134   1.385       .  A
C133        H136   1.082       .  S
C134        C135   1.381       .  A
C134        C295   1.476       .  S
C135        H137   1.082       .  S
N138        N139   1.323       .  A
N138        C142   1.345       .  A
N139        C140   1.346       .  A
C140        C141   1.385       .  A
C140        H143   1.081       .  S
C141        C142   1.385       .  A
C141        C395   1.487       .  S
C142        H144   1.080       .  S
N145        N146   1.322       .  A
N145        C149   1.352       .  A
N145       Cu153   2.095       .  S
N146        C147   1.340       .  A
N146       Cu152   2.056       .  S
C147        C148   1.376       .  A
C147        H150   1.083       .  S
C148        C149   1.388       .  A
C148        C345   1.476       .  S
C149        H151   1.082       .  S
Cu152       N155   2.055       .  S
Cu153       N163   2.097       .  S
Cu154       N156   2.084       .  S
Cu154       N162   2.086       .  S
N155        N156   1.321       .  A
N155        C159   1.341       .  A
N156        C157   1.349       .  A
C157        C158   1.387       .  A
C157        H160   1.082       .  S
C158        C159   1.379       .  A
C158        C292   1.476       .  S
C159        H161   1.082       .  S
N162        N163   1.325       .  A
N162        C166   1.345       .  A
N163        C164   1.349       .  A
C164        C165   1.388       .  A
C164        H167   1.082       .  S
C165        C166   1.385       .  A
C165        C285   1.491       .  S
C166        H168   1.083       .  S
C169        C170   1.531       .  S
C169        C175   1.542       .  S
C169        C613   1.542       .  S
C169        C255   1.559       .  S
C170        H177   1.085       .  S
C170        C171   1.370       .  D
C171        C172   1.555       .  S
C171        C315   1.519       .  S
C172        C176   1.556       .  S
C172        C614   1.550       .  S
C172        H178   1.105       .  S
C173        C609   1.542       .  S
C173        H179   1.084       .  S
C173        C174   1.364       .  D
C174        C612   1.550       .  S
C174        C275   1.510       .  S
C175        H180   1.083       .  S
C175        C176   1.371       .  D
C176        C265   1.502       .  S
C181        C182   1.534       .  S
C181        C187   1.537       .  S
C181        C185   1.549       .  S
C181        C282   1.561       .  S
C182        H189   1.087       .  S
C182        C183   1.368       .  D
C183        C184   1.558       .  S
C183        C262   1.509       .  S
C184        C188   1.554       .  S
C184        C186   1.555       .  S
C184        H190   1.109       .  S
C185        H191   1.083       .  S
C185        C186   1.371       .  D
C186        C272   1.514       .  S
C187        H192   1.085       .  S
C187        C188   1.366       .  D
C188        C355   1.507       .  S
N193        N194   1.321       .  A
N193        C197   1.349       .  A
N193       Cu201   2.071       .  S
N194        C195   1.340       .  A
N194       Cu200   2.061       .  S
C195        C196   1.379       .  A
C195        H198   1.081       .  S
C196        C197   1.384       .  A
C196        C325   1.473       .  S
C197        H199   1.082       .  S
Cu200       N643   2.061       .  S
Cu201       N211   2.070       .  S
Cu202       N204   2.083       .  S
Cu202       N650   2.082       .  S
N203        N204   1.321       .  A
N203        C207   1.342       .  A
N203       Cu640   2.061   1_455  S
N204        C205   1.349       .  A
C205        C206   1.386       .  A
C205        H208   1.081       .  S
C206        C207   1.379       .  A
C206        C242   1.476       .  S
C207        H209   1.081   1_455  S
N210        N211   1.322       .  A
N210        C214   1.341       .  A
N210       Cu642   2.082       .  S
N211        C212   1.345       .  A
C212        C213   1.387       .  A
C212        H215   1.081       .  S
C213        C214   1.389       .  A
C213        C405   1.493       .  S
C214        H656   1.080       .  S
H216        C654   1.080       .  S
N217        N218   1.323       .  A
N217        C221   1.349       .  A
N217       Cu225   2.080       .  S
N218        C219   1.341       .  A
N218       Cu224   2.069       .  S
C219        C220   1.379       .  A
C219        H222   1.083       .  S
C220        C221   1.385       .  A
C220        C305   1.476       .  S
C221        H223   1.081       .  S
Cu224       N227   2.069       .  S
Cu225       N235   2.081       .  S
Cu226       N228   2.085       .  S
Cu226       N234   2.087       .  S
N227        N228   1.321       .  A
N227        C231   1.344       .  A
N228        C229   1.348       .  A
C229        C230   1.387       .  A
C229        H232   1.081       .  S
C230        C231   1.383       .  A
C230        C245   1.483       .  S
C231        H233   1.082       .  S
N234        N235   1.325       .  A
N234        C238   1.346       .  A
N235        C236   1.348       .  A
C236        C237   1.383       .  A
C236        H239   1.082       .  S
C237        C238   1.383       .  A
C237        C252   1.481       .  S
C238        H240   1.081       .  S
C241        C242   1.409       .  A
C241        C246   1.409       .  A
C241       Br688   1.930   1_455  S
C242        C243   1.407       .  A
C243        C244   1.408       .  A
C243       Br250   1.930       .  S
C244        C245   1.412       .  A
C244       Br249   1.930       .  S
C245        C246   1.412       .  A
C246       Br687   1.929   1_455  S
Br247       C686   1.929       .  S
Br248       C681   1.930       .  S
C251        C252   1.402       .  A
C251        C256   1.411       .  A
C251       Br258   1.936       .  S
C252        C253   1.402       .  A
C253        C254   1.413       .  A
C253       Br260   1.936   1_455  S
C254        C255   1.436       .  A
C254       Br699   1.939   1_455  S
C255        C256   1.430       .  A
C256       Br257   1.927       .  S
Br259       C694   1.939       .  S
C261        C262   1.411       .  A
C261        C266   1.412       .  A
C261       Br268   1.922       .  S
C262        C263   1.420       .  A
C263        C264   1.414       .  A
C263       Br270   1.923       .  S
C264        C265   1.406       .  A
C264       Br269   1.926       .  S
C265        C266   1.414       .  A
C266       Br267   1.927       .  S
C271        C272   1.417       .  A
C271        C276   1.415       .  A
C271       Br278   1.930       .  S
C272        C273   1.416       .  A
C273        C274   1.418       .  A
C273       Br280   1.921       .  S
C274        C275   1.417       .  A
C274       Br279   1.936       .  S
C275        C276   1.413       .  A
C276       Br277   1.926       .  S
C281        C282   1.424       .  A
C281        C286   1.413       .  A
C281       Br288   1.927       .  S
C282        C283   1.429       .  A
C283        C284   1.412       .  A
C283       Br290   1.931       .  S
C284        C285   1.408       .  A
C284       Br289   1.938       .  S
C285        C286   1.408       .  A
C286       Br287   1.932       .  S
C291        C292   1.409       .  A
C291        C296   1.410   1_545  A
C291       Br298   1.929       .  S
C292        C293   1.410       .  A
C293        C294   1.406   1_545  A
C293       Br300   1.930       .  S
C294        C295   1.409       .  A
C294       Br299   1.930       .  S
C295        C296   1.410       .  A
C296       Br297   1.929       .  S
C301        C302   1.408       .  A
C301        C306   1.405   1_554  A
C301       Br308   1.930       .  S
C302        C303   1.411       .  A
C303        C304   1.410       .  A
C303       Br310   1.929       .  S
C304        C305   1.410   1_554  A
C304       Br309   1.929   1_554  S
C305        C306   1.408       .  A
C306       Br307   1.930       .  S
C311        C312   1.415       .  A
C311        C316   1.407       .  A
C311       Br318   1.934       .  S
C312        C313   1.419       .  A
C313        C314   1.416       .  A
C313       Br320   1.934       .  S
C314        C315   1.422       .  A
C314       Br319   1.930       .  S
C315        C316   1.422       .  A
C316       Br317   1.935   1_455  S
C321        C322   1.413       .  A
C321        C326   1.410   1_554  A
C321       Br768   1.929       .  S
C322        C323   1.411   1_554  A
C323        C324   1.404       .  A
C323       Br330   1.930   1_556  S
C324        C325   1.406       .  A
C324       Br329   1.931       .  S
C325        C326   1.409       .  A
C326       Br767   1.930       .  S
Br327       C766   1.930       .  S
Br328       C761   1.929       .  S
C331        C332   1.413       .  A
C331        C336   1.411       .  A
C331       Br338   1.930       .  S
C332        C773   1.412       .  A
C333        C334   1.410       .  A
C333        C772   1.412   1_455  A
C333       Br340   1.931       .  S
C334        C335   1.412   1_455  A
C334       Br339   1.932       .  S
C335        C776   1.410       .  A
C336        C775   1.410       .  A
C336       Br337   1.930       .  S
C341        C342   1.409       .  A
C341        C346   1.409   1_556  A
C341       Br348   1.929       .  S
C342        C343   1.411       .  A
C343        C344   1.409   1_556  A
C343       Br350   1.929       .  S
C344        C345   1.408       .  A
C344       Br349   1.929       .  S
C345        C346   1.409       .  A
C346       Br347   1.929       .  S
C351        C352   1.411       .  A
C351        C356   1.414       .  A
C351       Br358   1.933       .  S
C352        C353   1.410       .  A
C353        C354   1.410       .  A
C353       Br360   1.934       .  S
C354        C355   1.422       .  A
C354       Br359   1.939       .  S
C355        C356   1.417       .  A
C356       Br357   1.925       .  S
C361        C362   1.409       .  A
C361        C366   1.409   1_554  A
C361       Br368   1.928       .  S
C362        C363   1.408       .  A
C363        C364   1.406   1_554  A
C363       Br370   1.930       .  S
C364        C365   1.409       .  A
C364       Br369   1.929       .  S
C365        C366   1.409       .  A
C366       Br367   1.929       .  S
C371        C372   1.411       .  A
C371        C376   1.407   1_545  A
C371       Br378   1.931       .  S
C372        C373   1.411       .  A
C373        C374   1.410   1_545  A
C373       Br380   1.930       .  S
C374        C375   1.411       .  A
C374       Br379   1.930       .  S
C375        C376   1.409       .  A
C376       Br377   1.931       .  S
C381        C382   1.431       .  A
C381        C386   1.411       .  A
C381       Br388   1.925       .  S
C382        C383   1.435       .  A
C383        C384   1.411       .  A
C383       Br390   1.940       .  S
C384        C385   1.402       .  A
C384       Br389   1.935       .  S
C385        C386   1.402       .  A
C386       Br387   1.938       .  S
C391        C392   1.429       .  A
C391        C396   1.410       .  A
C391       Br398   1.935       .  S
C392        C393   1.426       .  A
C393        C394   1.412       .  A
C393       Br400   1.930       .  S
C394        C395   1.408       .  A
C394       Br399   1.935       .  S
C395        C396   1.406       .  A
C396       Br397   1.938       .  S
C401        C406   1.396       .  A
C401        C842   1.416       .  A
C401       Br408   1.926       .  S
C402        C448   1.509       .  S
C402        C403   1.422       .  A
C402        C841   1.416       .  A
C403        C404   1.416       .  A
C403       Br410   1.926       .  S
C404        C405   1.417       .  A
C404       Br409   1.933       .  S
C405        C846   1.409       .  A
C406        C845   1.409       .  A
C406       Br407   1.935       .  S
C411        C412   1.405       .  A
C411        C416   1.397       .  A
C411       Br418   1.934       .  S
C412        C413   1.415       .  A
C413        C414   1.422       .  A
C413       Br420   1.931       .  S
C414        C415   1.429       .  A
C414       Br419   1.929       .  S
C415        C416   1.422       .  A
C416       Br417   1.920       .  S
C421        C422   1.411       .  A
C421        C426   1.411       .  A
C421       Br428   1.930       .  S
C422        C423   1.415       .  A
C423        C424   1.415       .  A
C423       Br430   1.935       .  S
C424        C425   1.414       .  A
C424       Br429   1.920       .  S
C425        C426   1.412       .  A
C426       Br427   1.925       .  S
C431        C432   1.415       .  A
C431        C436   1.413       .  A
C431       Br438   1.924       .  S
C432        C433   1.421       .  A
C433        C434   1.414       .  A
C433       Br440   1.916       .  S
C434        C435   1.407       .  A
C434       Br439   1.931       .  S
C435        C436   1.419       .  A
C436       Br437   1.938       .  S
C441        C442   1.536   1_455  S
C441        C447   1.551       .  S
C441        C855   1.562       .  S
C442        H449   1.087       .  S
C442        C443   1.368       .  D
C443        C875   1.503       .  S
C444        C448   1.538       .  S
C444        C446   1.546       .  S
C444        H450   1.106       .  S
C445        H451   1.086       .  S
C445        C446   1.369       .  D
C446        C865   1.503       .  S
C447        H452   1.080   1_455  S
C453        C454   1.530       .  S
C453        C459   1.537       .  S
C453        C457   1.557       .  S
C453        C822   1.560       .  S
C454        H461   1.086       .  S
C454        C455   1.359       .  D
C455        C456   1.567       .  S
C455        C862   1.500       .  S
C456        C460   1.549       .  S
C456        C458   1.544       .  S
C456        H462   1.099       .  S
C457        H463   1.079       .  S
C457        C458   1.372       .  D
C458        C872   1.515       .  S
C459        H464   1.085       .  S
C459        C460   1.370       .  D
C460        C832   1.521       .  S
N465        N466   1.323       .  A
N465        C469   1.349       .  A
N465       Cu473   2.082       .  S
N466        C467   1.342       .  A
N466       Cu472   2.068       .  S
C467        C468   1.379       .  A
C467        H470   1.083       .  S
C468        C469   1.385       .  A
C468        C805   1.475       .  S
C469        H471   1.082       .  S
Cu472       N475   2.068       .  S
Cu473       N483   2.083       .  S
Cu474       N476   2.078       .  S
Cu474       N482   2.079       .  S
N475        N476   1.321       .  A
N475        C479   1.343       .  A
N476        C477   1.348       .  A
C477        C478   1.385       .  A
C477        H480   1.082       .  S
C478        C479   1.382       .  A
C478        C815   1.480       .  S
C479        H481   1.083       .  S
N482        N483   1.324       .  A
N482        C486   1.344       .  A
N483        C484   1.348       .  A
C484        C485   1.384       .  A
C484        H487   1.082       .  S
C485        C486   1.382       .  A
C485        C825   1.480       .  S
C486        H488   1.082       .  S
N489        N490   1.322       .  A
N489        C493   1.351       .  A
N489       Cu497   2.094       .  S
N490        C491   1.342       .  A
N490       Cu496   2.060       .  S
C491        C492   1.378       .  A
C491        H494   1.082       .  S
C492        C493   1.388       .  A
C492        C782   1.479       .  S
C493        H495   1.081       .  S
Cu496       N499   2.059       .  S
Cu497       N507   2.096       .  S
Cu498       N500   2.086       .  S
Cu498       N506   2.088       .  S
N499        N500   1.321       .  A
N499        C503   1.341       .  A
N500        C501   1.350       .  A
C501        C502   1.388       .  A
C501        H504   1.082       .  S
C502        C503   1.380       .  A
C502        C812   1.481       .  S
C503        H505   1.081       .  S
N506        N507   1.325       .  A
N506        C510   1.346       .  A
N507        C508   1.348       .  A
C508        C509   1.387       .  A
C508        H511   1.081       .  S
C509        C510   1.385       .  A
C509        C792   1.490       .  S
C510        H512   1.082       .  S
N513        N514   1.323       .  A
N513        C517   1.350       .  A
N513       Cu521   2.088       .  S
N514        C515   1.340       .  A
N514       Cu520   2.069       .  S
C515        C516   1.379       .  A
C515        H518   1.083       .  S
C516        C517   1.387       .  A
C516        C762   1.480       .  S
C517        H519   1.081       .  S
Cu520       N523   2.069       .  S
Cu521       N531   2.088       .  S
Cu522       N524   2.085       .  S
Cu522       N530   2.086       .  S
N523        N524   1.320       .  A
N523        C527   1.345       .  A
N524        C525   1.349       .  A
C525        C526   1.389       .  A
C525        H528   1.083       .  S
C526        C527   1.384       .  A
C526        C772   1.487       .  S
C527        H529   1.082       .  S
N530        N531   1.323       .  A
N530        C534   1.341       .  A
N531        C532   1.351       .  A
C532        C533   1.391       .  A
C532        H535   1.080       .  S
C533        C534   1.388       .  A
C533        C852   1.497       .  S
C534        H536   1.080       .  S
N537        N538   1.321       .  A
N537        C541   1.350       .  A
N537       Cu545   2.081       .  S
N538        C539   1.339       .  A
N538       Cu544   2.057       .  S
C539        C540   1.378       .  A
C539        H542   1.082       .  S
C540        C541   1.387       .  A
C540        C742   1.476       .  S
C541        H543   1.081       .  S
Cu544       N547   2.058       .  S
Cu545       N555   2.082       .  S
Cu546       N548   2.100       .  S
Cu546       N554   2.099       .  S
N547        N548   1.322       .  A
N547        C551   1.342       .  A
N548        C549   1.351       .  A
C549        C550   1.390       .  A
C549        H552   1.082       .  S
C550        C551   1.380       .  A
C550        C775   1.485       .  S
C551        H553   1.081       .  S
N554        N555   1.322       .  A
N554        C558   1.345       .  A
N555        C556   1.346       .  A
C556        C557   1.391       .  A
C556        H559   1.080       .  S
C557        C558   1.394       .  A
C557        C752   1.506       .  S
C558        H560   1.079       .  S
N561        N562   1.322       .  A
N561        C565   1.349       .  A
N561       Cu569   2.079       .  S
N562        C563   1.342       .  A
N562       Cu568   2.067       .  S
C563        C564   1.379       .  A
C563        H566   1.082       .  S
C564        C565   1.384       .  A
C564        C802   1.474       .  S
C565        H567   1.082       .  S
Cu568       N571   2.067       .  S
Cu569       N579   2.080       .  S
Cu570       N572   2.078       .  S
Cu570       N578   2.080       .  S
N571        N572   1.322       .  A
N571        C575   1.343       .  A
N572        C573   1.348       .  A
C573        C574   1.385       .  A
C573        H576   1.082       .  S
C574        C575   1.381       .  A
C574        C735   1.476       .  S
C575        H577   1.082       .  S
N578        N579   1.323       .  A
N578        C582   1.345       .  A
N579        C580   1.346       .  A
C580        C581   1.385       .  A
C580        H583   1.081       .  S
C581        C582   1.385       .  A
C581        C835   1.487       .  S
C582        H584   1.080       .  S
N585        N586   1.322       .  A
N585        C589   1.352       .  A
N585       Cu593   2.095       .  S
N586        C587   1.340       .  A
N586       Cu592   2.056       .  S
C587        C588   1.376       .  A
C587        H590   1.083       .  S
C588        C589   1.388       .  A
C588        C785   1.476       .  S
C589        H591   1.082       .  S
Cu592       N595   2.055       .  S
Cu593       N603   2.097       .  S
Cu594       N596   2.084       .  S
Cu594       N602   2.086       .  S
N595        N596   1.321       .  A
N595        C599   1.341       .  A
N596        C597   1.349       .  A
C597        C598   1.387       .  A
C597        H600   1.082       .  S
C598        C599   1.379       .  A
C598        C732   1.476       .  S
C599        H601   1.082       .  S
N602        N603   1.325       .  A
N602        C606   1.345       .  A
N603        C604   1.349       .  A
C604        C605   1.388       .  A
C604        H607   1.082       .  S
C605        C606   1.385       .  A
C605        C725   1.491       .  S
C606        H608   1.083       .  S
C609        C610   1.531       .  S
C609        C615   1.542       .  S
C609        C695   1.559       .  S
C610        H617   1.085       .  S
C610        C611   1.369       .  D
C611        C612   1.555       .  S
C611        C755   1.519       .  S
C612        C616   1.556       .  S
C612        H618   1.105       .  S
C613        H619   1.084   1_455  S
C613        C614   1.364       .  D
C614        C715   1.510   1_455  S
C615        H620   1.083       .  S
C615        C616   1.371       .  D
C616        C705   1.502       .  S
C621        C622   1.534       .  S
C621        C627   1.537       .  S
C621        C625   1.549       .  S
C621        C722   1.561       .  S
C622        H629   1.087       .  S
C622        C623   1.368       .  D
C623        C624   1.558       .  S
C623        C702   1.509       .  S
C624        C628   1.554       .  S
C624        C626   1.555       .  S
C624        H630   1.109       .  S
C625        H631   1.083       .  S
C625        C626   1.371       .  D
C626        C712   1.514       .  S
C627        H632   1.085       .  S
C627        C628   1.366       .  D
C628        C795   1.507       .  S
N633        N634   1.321       .  A
N633        C637   1.349       .  A
N633       Cu641   2.071       .  S
N634        C635   1.340       .  A
N634       Cu640   2.061       .  S
C635        C636   1.379       .  A
C635        H638   1.081       .  S
C636        C637   1.384       .  A
C636        C765   1.473       .  S
C637        H639   1.082       .  S
Cu641       N651   2.070       .  S
Cu642       N644   2.083       .  S
N643        N644   1.321       .  A
N643        C647   1.342       .  A
N644        C645   1.349       .  A
C645        C646   1.386       .  A
C645        H648   1.081       .  S
C646        C647   1.379       .  A
C646        C682   1.476       .  S
C647        H649   1.081       .  S
N650        N651   1.322   1_455  A
N650        C654   1.341       .  A
N651        C652   1.345       .  A
C652        C653   1.387   1_655  A
C652        H655   1.081       .  S
C653        C654   1.389       .  A
C653        C845   1.493       .  S
N657        N658   1.323       .  A
N657        C661   1.349       .  A
N657       Cu665   2.080       .  S
N658        C659   1.341       .  A
N658       Cu664   2.069       .  S
C659        C660   1.379       .  A
C659        H662   1.083       .  S
C660        C661   1.385       .  A
C660        C745   1.476       .  S
C661        H663   1.081       .  S
Cu664       N667   2.069       .  S
Cu665       N675   2.081       .  S
Cu666       N668   2.085       .  S
Cu666       N674   2.087       .  S
N667        N668   1.321       .  A
N667        C671   1.344       .  A
N668        C669   1.348       .  A
C669        C670   1.387       .  A
C669        H672   1.081       .  S
C670        C671   1.383       .  A
C670        C685   1.483       .  S
C671        H673   1.082       .  S
N674        N675   1.325       .  A
N674        C678   1.346       .  A
N675        C676   1.348       .  A
C676        C677   1.383       .  A
C676        H679   1.082       .  S
C677        C678   1.383       .  A
C677        C692   1.481       .  S
C678        H680   1.081       .  S
C681        C682   1.409       .  A
C681        C686   1.409       .  A
C682        C683   1.407       .  A
C683        C684   1.408       .  A
C683       Br690   1.930       .  S
C684        C685   1.412       .  A
C684       Br689   1.930       .  S
C685        C686   1.412       .  A
C691        C692   1.402       .  A
C691        C696   1.411       .  A
C691       Br698   1.936       .  S
C692        C693   1.402       .  A
C693        C694   1.413       .  A
C693       Br700   1.936       .  S
C694        C695   1.436       .  A
C695        C696   1.430       .  A
C696       Br697   1.927       .  S
C701        C702   1.411       .  A
C701        C706   1.412       .  A
C701       Br708   1.922       .  S
C702        C703   1.420       .  A
C703        C704   1.414       .  A
C703       Br710   1.923       .  S
C704        C705   1.406       .  A
C704       Br709   1.926       .  S
C705        C706   1.414       .  A
C706       Br707   1.927       .  S
C711        C712   1.417       .  A
C711        C716   1.415       .  A
C711       Br718   1.930       .  S
C712        C713   1.416       .  A
C713        C714   1.418       .  A
C713       Br720   1.921       .  S
C714        C715   1.417       .  A
C714       Br719   1.936       .  S
C715        C716   1.413       .  A
C716       Br717   1.926       .  S
C721        C722   1.424       .  A
C721        C726   1.413       .  A
C721       Br728   1.927       .  S
C722        C723   1.429       .  A
C723        C724   1.412       .  A
C723       Br730   1.931       .  S
C724        C725   1.408       .  A
C724       Br729   1.938       .  S
C725        C726   1.408       .  A
C726       Br727   1.932       .  S
C731        C732   1.409       .  A
C731        C736   1.410   1_545  A
C731       Br738   1.929       .  S
C732        C733   1.410       .  A
C733        C734   1.406   1_545  A
C733       Br740   1.930       .  S
C734        C735   1.409       .  A
C734       Br739   1.930       .  S
C735        C736   1.410       .  A
C736       Br737   1.929       .  S
C741        C742   1.408       .  A
C741        C746   1.405   1_554  A
C741       Br748   1.930       .  S
C742        C743   1.411       .  A
C743        C744   1.410       .  A
C743       Br750   1.929       .  S
C744        C745   1.410   1_554  A
C744       Br749   1.929   1_554  S
C745        C746   1.408       .  A
C746       Br747   1.930       .  S
C751        C752   1.415       .  A
C751        C756   1.407       .  A
C751       Br758   1.934       .  S
C752        C753   1.419       .  A
C753        C754   1.416       .  A
C753       Br760   1.934       .  S
C754        C755   1.422       .  A
C754       Br759   1.930       .  S
C755        C756   1.422       .  A
C756       Br757   1.935       .  S
C761        C762   1.413       .  A
C761        C766   1.410   1_554  A
C762        C763   1.411   1_554  A
C763        C764   1.404       .  A
C763       Br770   1.930   1_556  S
C764        C765   1.406       .  A
C764       Br769   1.931       .  S
C765        C766   1.409       .  A
C771        C772   1.413       .  A
C771        C776   1.411       .  A
C771       Br778   1.930       .  S
C773        C774   1.410       .  A
C773       Br780   1.931       .  S
C774        C775   1.412       .  A
C774       Br779   1.932       .  S
C776       Br777   1.930       .  S
C781        C782   1.409       .  A
C781        C786   1.409   1_556  A
C781       Br788   1.929       .  S
C782        C783   1.411       .  A
C783        C784   1.409   1_556  A
C783       Br790   1.929       .  S
C784        C785   1.408       .  A
C784       Br789   1.929       .  S
C785        C786   1.409       .  A
C786       Br787   1.929       .  S
C791        C792   1.411       .  A
C791        C796   1.414       .  A
C791       Br798   1.933       .  S
C792        C793   1.410       .  A
C793        C794   1.410       .  A
C793       Br800   1.934       .  S
C794        C795   1.422       .  A
C794       Br799   1.939       .  S
C795        C796   1.417       .  A
C796       Br797   1.925       .  S
C801        C802   1.409       .  A
C801        C806   1.409   1_554  A
C801       Br808   1.928       .  S
C802        C803   1.408       .  A
C803        C804   1.406   1_554  A
C803       Br810   1.930       .  S
C804        C805   1.409       .  A
C804       Br809   1.929       .  S
C805        C806   1.409       .  A
C806       Br807   1.929       .  S
C811        C812   1.411       .  A
C811        C816   1.407   1_545  A
C811       Br818   1.931       .  S
C812        C813   1.411       .  A
C813        C814   1.410   1_545  A
C813       Br820   1.930       .  S
C814        C815   1.411       .  A
C814       Br819   1.930       .  S
C815        C816   1.409       .  A
C816       Br817   1.931       .  S
C821        C822   1.431       .  A
C821        C826   1.411       .  A
C821       Br828   1.925       .  S
C822        C823   1.435       .  A
C823        C824   1.411       .  A
C823       Br830   1.940       .  S
C824        C825   1.402       .  A
C824       Br829   1.935       .  S
C825        C826   1.402       .  A
C826       Br827   1.938       .  S
C831        C832   1.429       .  A
C831        C836   1.410       .  A
C831       Br838   1.935       .  S
C832        C833   1.426       .  A
C833        C834   1.412       .  A
C833       Br840   1.930       .  S
C834        C835   1.408       .  A
C834       Br839   1.935       .  S
C835        C836   1.406       .  A
C836       Br837   1.938       .  S
C841        C846   1.396       .  A
C841       Br848   1.926       .  S
C842        C843   1.422   1_455  A
C843        C844   1.416       .  A
C843       Br850   1.926       .  S
C844        C845   1.417   1_655  A
C844       Br849   1.933       .  S
C846       Br847   1.935       .  S
C851        C852   1.405       .  A
C851        C856   1.397       .  A
C851       Br858   1.934       .  S
C852        C853   1.415       .  A
C853        C854   1.422   1_655  A
C853       Br860   1.931   1_655  S
C854        C855   1.429       .  A
C854       Br859   1.929       .  S
C855        C856   1.422   1_455  A
C856       Br857   1.920   1_655  S
C861        C862   1.411       .  A
C861        C866   1.411       .  A
C861       Br868   1.930       .  S
C862        C863   1.415       .  A
C863        C864   1.415       .  A
C863       Br870   1.935       .  S
C864        C865   1.414       .  A
C864       Br869   1.920       .  S
C865        C866   1.412       .  A
C866       Br867   1.925       .  S
C871        C872   1.415       .  A
C871        C876   1.413       .  A
C871       Br878   1.924       .  S
C872        C873   1.421       .  A
C873        C874   1.414       .  A
C873       Br880   1.916       .  S
C874        C875   1.407       .  A
C874       Br879   1.931   1_655  S
C875        C876   1.419       .  A
C876       Br877   1.938       .  S
