geometry optimzed in LAMMPS
_audit_creation_date              2020-11-30 
_audit_creation_method            'lammps2cif' 
_symmetry_space_group_name_H-M    'P1' 
_symmetry_Int_Tables_number       1 
_symmetry_cell_setting            triclinic 
loop_ 
_symmetry_equiv_pos_as_xyz 
  x,y,z 
_cell_length_a                    33.41435730669903 
_cell_length_b                    20.15048022906735 
_cell_length_c                    26.10697151053284 
_cell_angle_alpha                 90.00037785875072 
_cell_angle_beta                  89.9987101547542 
_cell_angle_gamma                 90.52001226731036 
loop_ 
_atom_site_label 
_atom_site_type_symbol 
_atom_site_fract_x 
_atom_site_fract_y 
_atom_site_fract_z 
_atom_site_charge 
N1          N  0.41761153  0.00073054  0.22127232    -0.24830
N2          N  0.43818387  0.00059838  0.17800478    -0.32690
C3          C  0.41265031  0.00079748  0.13831651     0.03510
C4          C  0.37427023  0.00107383  0.15753130     0.09540
C5          C  0.37821436  0.00101615  0.21019374    -0.03560
H6          H  0.42145746  0.00069709  0.09845759     0.10210
H7          H  0.35441805  0.00112686  0.23829442     0.11410
Cu8        Cu  0.49991410  0.00007165  0.17425217     0.44170
Cu9        Cu  0.44499187  0.00044891  0.29264104     0.41990
Cu10       Cu  0.55484073  0.33294414  0.29263923     0.43880
N11         N  0.56163658  0.33289131  0.17800026    -0.32210
N12         N  0.58221213  0.33272890  0.22126415    -0.26470
C13         C  0.62160853  0.33247172  0.21017854    -0.02570
C14         C  0.62554851  0.33246551  0.15751579     0.09650
C15         C  0.58716743  0.33274083  0.13830764     0.03440
H16         H  0.64540696  0.33234725  0.23827478     0.11090
H17         H  0.57835770  0.33287554  0.09845030     0.10170
N18         N  0.51969439  0.33316525  0.35825402    -0.33660
N19         N  0.48013900  0.00019175  0.35825394    -0.25840
C20         C  0.46705929  0.00032046  0.40695354    -0.01080
C21         C  0.49991805  0.00000068  0.43948845     0.07530
C22         C  0.53277228  0.33302266  0.40695400     0.05620
H23         H  0.43578787  0.00025251  0.41754657     0.10730
H24         H  0.56404319  0.33309194  0.41754800     0.09560
N25         N  0.58219587  0.33271754  0.88027446    -0.24830
N26         N  0.56162292  0.33287778  0.92354132    -0.32690
C27         C  0.58715609  0.33272928  0.96322993     0.03510
C28         C  0.62553587  0.33245763  0.94401515     0.09540
C29         C  0.62159282  0.33246386  0.89135333    -0.03560
H30         H  0.57834888  0.33286337  0.00308869     0.10210
H31         H  0.64538944  0.33234222  0.86325318     0.11410
Cu32       Cu  0.49989340  0.33338862  0.92729441     0.44170
Cu33       Cu  0.55481996  0.33293227  0.80890582     0.41990
Cu34       Cu  0.44496668  0.00043673  0.80890520     0.43880
N35         N  0.43816571  0.00058432  0.92354433    -0.32210
N36         N  0.41759125  0.00071871  0.88027944    -0.26470
C37         C  0.37819469  0.00100776  0.89136406    -0.02570
C38         C  0.37425387  0.00106532  0.94402713     0.09650
C39         C  0.41263456  0.00078531  0.96323617     0.03440
H40         H  0.35439670  0.00112135  0.86326713     0.11090
H41         H  0.42144389  0.00068426  0.00309380     0.10170
N42         N  0.48011657  0.00018036  0.74329159    -0.33660
N43         N  0.51967589  0.33315389  0.74329323    -0.25840
C44         C  0.53275730  0.33301304  0.69459445    -0.01080
C45         C  0.49989957  0.33332530  0.66205833     0.07530
C46         C  0.46704135  0.00031075  0.69459047     0.05620
H47         H  0.56402905  0.33308360  0.68400276     0.10730
H48         H  0.43577097  0.00024384  0.68399411     0.09560
C49         C  0.21392853  0.16635765  0.05077995    -0.00030
C50         C  0.28588520  0.00076417  0.05079090    -0.00030
N51         N  0.91757781  0.16742519  0.22124231    -0.24830
N52         N  0.93815207  0.16731253  0.17797589    -0.32690
C53         C  0.91261908  0.16745293  0.13828711     0.03510
C54         C  0.87423869  0.16766966  0.15750114     0.09540
C55         C  0.87818076  0.16763939  0.21016268    -0.03560
H56         H  0.92142700  0.16735627  0.09842871     0.10210
H57         H  0.85438350  0.16772452  0.23826230     0.11410
Cu58       Cu  0.99988332  0.16689254  0.17421828     0.44170
Cu59       Cu  0.94494827  0.16722771  0.29261353     0.41990
Cu60       Cu  0.05480205  0.16670953  0.29260539     0.43880
N61         N  0.06161455  0.16646184  0.17797183    -0.32210
N62         N  0.08218444  0.16640522  0.22124036    -0.26470
C63         C  0.12158252  0.16615688  0.21016558    -0.02570
C64         C  0.12553033  0.16604387  0.15750422     0.09650
C65         C  0.08715138  0.16625000  0.13828573     0.03440
H66         H  0.14537678  0.16610360  0.23826826     0.11090
H67         H  0.07834720  0.16629013  0.09842631     0.10170
N68         N  0.01965721  0.16689321  0.35821862    -0.33660
N69         N  0.98009511  0.16710533  0.35822326    -0.25840
C70         C  0.96701874  0.16719801  0.40692367    -0.01080
C71         C  0.99988119  0.16701867  0.43946160     0.07530
C72         C  0.03273919  0.16682471  0.40691519     0.05620
H73         H  0.93574583  0.16705331  0.41750522     0.10730
H74         H  0.06401348  0.16696684  0.41748782     0.09560
N75         N  0.08221945  0.16639517  0.88028236    -0.24830
N76         N  0.06164573  0.16645051  0.92354954    -0.32690
C77         C  0.08717907  0.16623945  0.96323777     0.03510
C78         C  0.12555978  0.16603526  0.94402354     0.09540
C79         C  0.12161677  0.16614856  0.89136145    -0.03560
H80         H  0.07837119  0.16627946  0.00309636     0.10210
H81         H  0.14541381  0.16609720  0.86326122     0.11410
Cu82       Cu  0.99991380  0.16688079  0.92730763     0.44170
Cu83       Cu  0.05484457  0.16670008  0.80891147     0.41990
Cu84       Cu  0.94498986  0.16721910  0.80892184     0.43880
N85         N  0.93818178  0.16730442  0.92355541    -0.32210
N86         N  0.91761119  0.16741836  0.88028769    -0.26470
C87         C  0.87821322  0.16763579  0.89136321    -0.02570
C88         C  0.87426589  0.16766689  0.94402426     0.09650
C89         C  0.91264496  0.16744719  0.96324211     0.03440
H90         H  0.85441878  0.16772264  0.86326106     0.11090
H91         H  0.92144921  0.16735023  0.00310131     0.10170
N92         N  0.98013215  0.16709778  0.74330818    -0.33660
N93         N  0.01969428  0.16688550  0.74330211    -0.25840
C94         C  0.03276881  0.16681894  0.69460083    -0.01080
C95         C  0.99990526  0.16701467  0.66206438     0.07530
C96         C  0.96704839  0.16719251  0.69461236     0.05620
H97         H  0.06404137  0.16696128  0.68401780     0.10730
H98         H  0.93577375  0.16704831  0.68404114     0.09560
C99         C  0.78587028  0.16725915  0.05074943    -0.00030
C100        C  0.71391737  0.33284870  0.05075396    -0.00030
C101        C  0.73925227  0.05907963  0.05074664    -0.10810
C102        C  0.76054167  0.10769336  0.05074492    -0.12370
C103        C  0.76055289  0.22608291  0.05074657    -0.10810
C104        C  0.73923382  0.27402388  0.05074923    -0.12370
C105        C  0.83824302  0.16770509  0.97398968    -0.10810
C106        C  0.81186099  0.16759320  0.00551878    -0.12370
C107        C  0.81184722  0.16759216  0.09599080    -0.10810
C108        C  0.83822029  0.16770508  0.12753011    -0.12370
C109        C  0.03573301  0.15952162  0.57753186    -0.10960
C110        C  0.99989860  0.16702075  0.60508043     0.11260
C111        C  0.96405775  0.17452217  0.57754688    -0.10880
C112        C  0.96405175  0.17452270  0.52399376    -0.10880
C113        C  0.99988641  0.16702204  0.49644548     0.11260
C114        C  0.03572700  0.15952214  0.52397927    -0.10880
H115        H  0.06395206  0.15319005  0.59710317     0.15250
H116        H  0.93584302  0.18085255  0.59713034     0.15250
H117        H  0.93583286  0.18085335  0.50442173     0.15250
H118        H  0.06394189  0.15319083  0.50439653     0.15250
C119        C  0.23925980  0.22592093  0.05078667    -0.10810
C120        C  0.26054942  0.27453468  0.05079052    -0.12370
C121        C  0.23924550  0.10753006  0.05078837    -0.10810
C122        C  0.26056838  0.05959188  0.05079269    -0.12370
C123        C  0.18795230  0.16603227  0.00553577    -0.10810
C124        C  0.16157894  0.16594948  0.97399554    -0.12370
C125        C  0.18793551  0.16603519  0.09600925    -0.10810
C126        C  0.16155326  0.16595507  0.12753841    -0.12370
C127        C  0.66155482  0.33240840  0.97398556    -0.10810
C128        C  0.68793086  0.33251644  0.00552111    -0.12370
C129        C  0.31186536  0.00108686  0.00554909    -0.10810
C130        C  0.33823696  0.00116444  0.97400512    -0.12370
C131        C  0.68793769  0.33251764  0.09599548    -0.10810
C132        C  0.66156543  0.33241220  0.12753823    -0.12370
C133        C  0.31187291  0.00108860  0.09602493    -0.10810
C134        C  0.33825029  0.00116889  0.12756006    -0.12370
C135        C  0.53563291  0.32452365  0.52399829    -0.10880
C136        C  0.49990979  0.33333124  0.49646315     0.11260
C137        C  0.46418912  0.00880224  0.52399440    -0.10880
C138        C  0.46418547  0.00879975  0.57754782    -0.10880
C139        C  0.49990349  0.33332627  0.60508357     0.11260
C140        C  0.53562980  0.32452111  0.57755218    -0.10880
H141        H  0.56374402  0.31710958  0.50440540     0.15250
H142        H  0.43608009  0.01621775  0.50439886     0.15250
H143        H  0.43607391  0.01621342  0.59713961     0.15250
H144        H  0.56373878  0.31710513  0.59714788     0.15250
N145        N  0.41760392  0.33406394  0.22127367    -0.24830
N146        N  0.43817618  0.33393200  0.17800605    -0.32690
C147        C  0.41264258  0.33413146  0.13831792     0.03510
C148        C  0.37426262  0.33440784  0.15753285     0.09540
C149        C  0.37820673  0.33434976  0.21019525    -0.03560
H150        H  0.42144963  0.33403131  0.09845896     0.10210
H151        H  0.35441047  0.33446037  0.23829599     0.11410
Cu152      Cu  0.49990631  0.33340520  0.17425233     0.44170
Cu153      Cu  0.44498423  0.33378192  0.29264216     0.41990
Cu154      Cu  0.55484076  0.66627736  0.29263924     0.43880
N155        N  0.56163661  0.66622448  0.17800027    -0.32210
N156        N  0.58221216  0.66606216  0.22126416    -0.26470
C157        C  0.62160857  0.66580537  0.21017855    -0.02570
C158        C  0.62554855  0.66579934  0.15751580     0.09650
C159        C  0.58716746  0.66607432  0.13830765     0.03440
H160        H  0.64540700  0.66568114  0.23827479     0.11090
H161        H  0.57835773  0.66620911  0.09845031     0.10170
N162        N  0.51969442  0.66649865  0.35825402    -0.33660
N163        N  0.48013203  0.33352489  0.35825422    -0.25840
C164        C  0.46705279  0.33365359  0.40695401    -0.01080
C165        C  0.49991187  0.33333398  0.43948833     0.07530
C166        C  0.53277231  0.66635610  0.40695401     0.05620
H167        H  0.43578147  0.33358545  0.41754756     0.10730
H168        H  0.56404322  0.66642532  0.41754801     0.09560
N169        N  0.58219590  0.66605032  0.88027445    -0.24830
N170        N  0.56162294  0.66621048  0.92354131    -0.32690
C171        C  0.58715611  0.66606190  0.96322992     0.03510
C172        C  0.62553589  0.66579031  0.94401514     0.09540
C173        C  0.62159285  0.66579663  0.89135332    -0.03560
H174        H  0.57834890  0.66619605  0.00308868     0.10210
H175        H  0.64538947  0.66567518  0.86325318     0.11410
Cu176      Cu  0.49989343  0.66672157  0.92729440     0.44170
Cu177      Cu  0.55481999  0.66626541  0.80890581     0.41990
Cu178      Cu  0.44496438  0.33376969  0.80890585     0.43880
N179        N  0.43816399  0.33391804  0.92354499    -0.32210
N180        N  0.41758930  0.33405202  0.88028029    -0.26470
C181        C  0.37819282  0.33434104  0.89136524    -0.02570
C182        C  0.37425223  0.33439901  0.94402833     0.09650
C183        C  0.41263304  0.33411925  0.96323708     0.03440
H184        H  0.35439469  0.33445435  0.86326849     0.11090
H185        H  0.42144259  0.33401855  0.00309464     0.10170
N186        N  0.48011357  0.33351339  0.74329165    -0.33660
N187        N  0.51967592  0.66648729  0.74329322    -0.25840
C188        C  0.53275733  0.66634647  0.69459444    -0.01080
C189        C  0.49989959  0.66665880  0.66205833     0.07530
C190        C  0.46703779  0.33364372  0.69459077     0.05620
H191        H  0.56402908  0.66641696  0.68400276     0.10730
H192        H  0.43576730  0.33357662  0.68399498     0.09560
C193        C  0.21392587  0.49969312  0.05077865    -0.00030
C194        C  0.28588089  0.33409783  0.05078933    -0.00030
N195        N  0.91757620  0.50075667  0.22124263    -0.24830
N196        N  0.93815033  0.50064383  0.17797611    -0.32690
C197        C  0.91261720  0.50078350  0.13828746     0.03510
C198        C  0.87423687  0.50099993  0.15750171     0.09540
C199        C  0.87817912  0.50097026  0.21016322    -0.03560
H200        H  0.92142499  0.50068673  0.09842901     0.10210
H201        H  0.85438195  0.50105551  0.23826298     0.11410
Cu202      Cu  0.99988157  0.50022489  0.17421845     0.44170
Cu203      Cu  0.94494694  0.50056039  0.29261360     0.41990
Cu204      Cu  0.05480074  0.50004307  0.29260563     0.43880
N205        N  0.06161281  0.49979522  0.17797193    -0.32210
N206        N  0.08218284  0.49973899  0.22124036    -0.26470
C207        C  0.12158089  0.49949131  0.21016534    -0.02570
C208        C  0.12552852  0.49937834  0.15750396     0.09650
C209        C  0.08714951  0.49958378  0.13828570     0.03440
H210        H  0.14537527  0.49943850  0.23826788     0.11090
H211        H  0.07834518  0.49962374  0.09842633     0.10170
N212        N  0.01965583  0.50022679  0.35821885    -0.33660
N213        N  0.98009374  0.50043869  0.35822332    -0.25840
C214        C  0.96701721  0.50053148  0.40692363    -0.01080
C215        C  0.99987952  0.50035243  0.43946173     0.07530
C216        C  0.03273766  0.50015853  0.40691551     0.05620
H217        H  0.93574425  0.50038657  0.41750499     0.10730
H218        H  0.06401191  0.50030083  0.41748834     0.09560
N219        N  0.08221592  0.49973057  0.88028236    -0.24830
N220        N  0.06164230  0.49978528  0.92354961    -0.32690
C221        C  0.08717574  0.49957546  0.96323772     0.03510
C222        C  0.12555640  0.49937275  0.94402330     0.09540
C223        C  0.12161327  0.49948557  0.89136125    -0.03560
H224        H  0.07836798  0.49961504  0.00309636     0.10210
H225        H  0.14541023  0.49943477  0.86326091     0.11410
Cu226      Cu  0.99991037  0.50021261  0.92730770     0.44170
Cu227      Cu  0.05484091  0.50003410  0.80891170     0.41990
Cu228      Cu  0.94498620  0.50055113  0.80892179     0.43880
N229        N  0.93817834  0.50063350  0.92355551    -0.32210
N230        N  0.91760765  0.50074776  0.88028786    -0.26470
C231        C  0.87820969  0.50096389  0.89136360    -0.02570
C232        C  0.87426251  0.50099372  0.94402469     0.09650
C233        C  0.91264164  0.50077472  0.96324232     0.03440
H234        H  0.85441517  0.50105115  0.86326157     0.11090
H235        H  0.92144601  0.50067769  0.00310148     0.10170
N236        N  0.98012868  0.50043099  0.74330816    -0.33660
N237        N  0.01969082  0.50021918  0.74330234    -0.25840
C238        C  0.03276560  0.50015294  0.69460119    -0.01080
C239        C  0.99990223  0.50034838  0.66206449     0.07530
C240        C  0.96704517  0.50052574  0.69461222     0.05620
H241        H  0.06403822  0.50029568  0.68401844     0.10730
H242        H  0.93577059  0.50038112  0.68404071     0.09560
C243        C  0.78586771  0.50058972  0.05075094    -0.00030
C244        C  0.71391739  0.66618226  0.05075395    -0.00030
C245        C  0.73924749  0.39241283  0.05074941    -0.10810
C246        C  0.76053774  0.44102553  0.05074759    -0.12370
C247        C  0.76055159  0.55941495  0.05074757    -0.10810
C248        C  0.73923329  0.60735683  0.05074972    -0.12370
C249        C  0.83823977  0.50103205  0.97399040    -0.10810
C250        C  0.81185801  0.50092128  0.00551988    -0.12370
C251        C  0.81184503  0.50092233  0.09599194    -0.10810
C252        C  0.83821834  0.50103515  0.12753093    -0.12370
C253        C  0.03573055  0.49285558  0.57753234    -0.10960
C254        C  0.99989595  0.50035453  0.60508055     0.11260
C255        C  0.96405527  0.50785583  0.57754665    -0.10880
C256        C  0.96404961  0.50785640  0.52399354    -0.10880
C257        C  0.99988445  0.50035588  0.49644562     0.11260
C258        C  0.03572489  0.49285614  0.52397975    -0.10880
H259        H  0.06394949  0.48652410  0.59710393     0.15250
H260        H  0.93584041  0.51418609  0.59712984     0.15250
H261        H  0.93583082  0.51418697  0.50442125     0.15250
H262        H  0.06393990  0.48652495  0.50439727     0.15250
C263        C  0.23925819  0.55925522  0.05078585    -0.10810
C264        C  0.26054863  0.60786801  0.05079013    -0.12370
C265        C  0.23924173  0.44086428  0.05078577    -0.10810
C266        C  0.26056392  0.39292528  0.05078977    -0.12370
C267        C  0.18794925  0.49936984  0.00553490    -0.10810
C268        C  0.16157567  0.49928755  0.97399502    -0.12370
C269        C  0.18793329  0.49937064  0.09600836    -0.10810
C270        C  0.16155131  0.49929017  0.12753788    -0.12370
C271        C  0.66155485  0.66574145  0.97398555    -0.10810
C272        C  0.68793088  0.66584984  0.00552110    -0.12370
C273        C  0.31186284  0.33442066  0.00554917    -0.10810
C274        C  0.33823528  0.33449822  0.97400631    -0.12370
C275        C  0.68793771  0.66585215  0.09599547    -0.10810
C276        C  0.66156546  0.66574661  0.12753823    -0.12370
C277        C  0.31186669  0.33442281  0.09602494    -0.10810
C278        C  0.33824294  0.33450314  0.12756146    -0.12370
C279        C  0.53563294  0.65785720  0.52399829    -0.10880
C280        C  0.49990982  0.66666474  0.49646315     0.11260
C281        C  0.46418386  0.34213674  0.52399480    -0.10880
C282        C  0.46418075  0.34213421  0.57754822    -0.10880
C283        C  0.49990352  0.66665977  0.60508357     0.11260
C284        C  0.53562983  0.65785465  0.57755218    -0.10880
H285        H  0.56374406  0.65044318  0.50440540     0.15250
H286        H  0.43607474  0.34955331  0.50439972     0.15250
H287        H  0.43606950  0.34954889  0.59714052     0.15250
H288        H  0.56373882  0.65043873  0.59714788     0.15250
N289        N  0.41760395  0.66739655  0.22127367    -0.24830
N290        N  0.43817621  0.66726449  0.17800606    -0.32690
C291        C  0.41264262  0.66746334  0.13831792     0.03510
C292        C  0.37426265  0.66773939  0.15753285     0.09540
C293        C  0.37820676  0.66768184  0.21019525    -0.03560
H294        H  0.42144966  0.66736296  0.09845897     0.10210
H295        H  0.35441049  0.66779242  0.23829599     0.11410
Cu296      Cu  0.49990634  0.66673813  0.17425234     0.44170
Cu297      Cu  0.44498426  0.66711520  0.29264216     0.41990
Cu298      Cu  0.55484829  0.99961068  0.29264034     0.43880
N299        N  0.56164434  0.99955785  0.17800142    -0.32210
N300        N  0.58221973  0.99939547  0.22126546    -0.26470
C301        C  0.62161619  0.99913850  0.21018013    -0.02570
C302        C  0.62555630  0.99913240  0.15751743     0.09650
C303        C  0.58717535  0.99940755  0.13830902     0.03440
H304        H  0.64541451  0.99901414  0.23827651     0.11090
H305        H  0.57836580  0.99954233  0.09845162     0.10170
N306        N  0.51970136  0.99983192  0.35825447    -0.33660
N307        N  0.48013206  0.66685834  0.35825422    -0.25840
C308        C  0.46705282  0.66698710  0.40695401    -0.01080
C309        C  0.49991191  0.66666748  0.43948833     0.07530
C310        C  0.53277877  0.99968925  0.40695466     0.05620
H311        H  0.43578150  0.66691898  0.41754755     0.10730
H312        H  0.56404958  0.99975833  0.41754915     0.09560
N313        N  0.58219777  0.99938367  0.88027613    -0.24830
N314        N  0.56162467  0.99954372  0.92354287    -0.32690
C315        C  0.58715774  0.99939519  0.96323165     0.03510
C316        C  0.62553761  0.99912372  0.94401704     0.09540
C317        C  0.62159467  0.99913008  0.89135521    -0.03560
H318        H  0.57835039  0.99952925  0.00309037     0.10210
H319        H  0.64539137  0.99900869  0.86325518     0.11410
Cu320      Cu  0.49989508  0.00005464  0.92729496     0.44170
Cu321      Cu  0.55482217  0.99959871  0.80890726     0.41990
Cu322      Cu  0.44496441  0.66710303  0.80890584     0.43880
N323        N  0.43816403  0.66725096  0.92354498    -0.32210
N324        N  0.41758933  0.66738504  0.88028029    -0.26470
C325        C  0.37819285  0.66767382  0.89136524    -0.02570
C326        C  0.37425226  0.66773151  0.94402833     0.09650
C327        C  0.41263308  0.66745187  0.96323708     0.03440
H328        H  0.35439472  0.66778712  0.86326849     0.11090
H329        H  0.42144262  0.66735099  0.00309463     0.10170
N330        N  0.48011360  0.66684685  0.74329165    -0.33660
N331        N  0.51967889  0.99982064  0.74329391    -0.25840
C332        C  0.53276086  0.99967972  0.69459536    -0.01080
C333        C  0.49990349  0.99999215  0.66205861     0.07530
C334        C  0.46703781  0.66697725  0.69459077     0.05620
H335        H  0.56403273  0.99975003  0.68400427     0.10730
H336        H  0.43576732  0.66691018  0.68399498     0.09560
C337        C  0.21392863  0.83302869  0.05077993    -0.00030
C338        C  0.28588093  0.66743022  0.05078933    -0.00030
N339        N  0.91757785  0.83408812  0.22124228    -0.24830
N340        N  0.93815211  0.83397505  0.17797586    -0.32690
C341        C  0.91261911  0.83411398  0.13828708     0.03510
C342        C  0.87423872  0.83433017  0.15750111     0.09540
C343        C  0.87818080  0.83430114  0.21016265    -0.03560
H344        H  0.92142703  0.83401706  0.09842868     0.10210
H345        H  0.85438353  0.83438659  0.23826227     0.11410
Cu346      Cu  0.99988337  0.83355712  0.17421826     0.44170
Cu347      Cu  0.94494832  0.83389311  0.29261350     0.41990
Cu348      Cu  0.05480212  0.83337674  0.29260538     0.43880
N349        N  0.06161462  0.83312854  0.17797182    -0.32210
N350        N  0.08218451  0.83307282  0.22124035    -0.26470
C351        C  0.12158260  0.83282585  0.21016556    -0.02570
C352        C  0.12553041  0.83271282  0.15750420     0.09650
C353        C  0.08715146  0.83291748  0.13828572     0.03440
H354        H  0.14537688  0.83277359  0.23826823     0.11090
H355        H  0.07834727  0.83295718  0.09842630     0.10170
N356        N  0.01965727  0.83356041  0.35821859    -0.33660
N357        N  0.98009517  0.83377205  0.35822324    -0.25840
C358        C  0.96701880  0.83386483  0.40692364    -0.01080
C359        C  0.99988125  0.83368601  0.43946157     0.07530
C360        C  0.03273926  0.83349230  0.40691517     0.05620
H361        H  0.93574588  0.83371967  0.41750521     0.10730
H362        H  0.06401355  0.83363480  0.41748780     0.09560
N363        N  0.08221955  0.83306609  0.88028230    -0.24830
N364        N  0.06164582  0.83312010  0.92354949    -0.32690
C365        C  0.08717917  0.83291149  0.96323771     0.03510
C366        C  0.12555991  0.83271032  0.94402349     0.09540
C367        C  0.12161690  0.83282272  0.89136140    -0.03560
H368        H  0.07837129  0.83295057  0.00309631     0.10210
H369        H  0.14541394  0.83277256  0.86326117     0.11410
Cu370      Cu  0.99991385  0.83354440  0.92730757     0.44170
Cu371      Cu  0.05484465  0.83336830  0.80891141     0.41990
Cu372      Cu  0.94498991  0.83388322  0.80892180     0.43880
N373        N  0.93818179  0.83396259  0.92355537    -0.32210
N374        N  0.91761120  0.83407719  0.88028764    -0.26470
C375        C  0.87821322  0.83429206  0.89136317    -0.02570
C376        C  0.87426587  0.83432060  0.94402422     0.09650
C377        C  0.91264496  0.83410225  0.96324207     0.03440
H378        H  0.85441878  0.83437975  0.86326102     0.11090
H379        H  0.92144920  0.83400514  0.00310127     0.10170
N380        N  0.98013221  0.83376429  0.74330813    -0.33660
N381        N  0.01969435  0.83355299  0.74330206    -0.25840
C382        C  0.03276888  0.83348702  0.69460077    -0.01080
C383        C  0.99990533  0.83368212  0.66206433     0.07530
C384        C  0.96704845  0.83385900  0.69461231     0.05620
H385        H  0.06404144  0.83363016  0.68401774     0.10730
H386        H  0.93577381  0.83371388  0.68404108     0.09560
C387        C  0.78587030  0.83392038  0.05074941    -0.00030
C388        C  0.71392212  0.99951553  0.05075270    -0.00030
C389        C  0.73924806  0.72574579  0.05074890    -0.10810
C390        C  0.76053906  0.77435761  0.05074658    -0.12370
C391        C  0.76055554  0.89274724  0.05074490    -0.10810
C392        C  0.73923808  0.94069016  0.05074696    -0.12370
C393        C  0.83824301  0.83435910  0.97398965    -0.10810
C394        C  0.81186100  0.83424947  0.00551875    -0.12370
C395        C  0.81184725  0.83425257  0.09599077    -0.10810
C396        C  0.83822032  0.83436523  0.12753008    -0.12370
C397        C  0.03573307  0.82618907  0.57753183    -0.10960
C398        C  0.99989866  0.83368822  0.60508039     0.11260
C399        C  0.96405782  0.84118962  0.57754685    -0.10880
C400        C  0.96405181  0.84119012  0.52399373    -0.10880
C401        C  0.99988647  0.83368944  0.49644545     0.11260
C402        C  0.03572707  0.82618956  0.52397924    -0.10880
H403        H  0.06395211  0.81985746  0.59710315     0.15250
H404        H  0.93584309  0.84752005  0.59713032     0.15250
H405        H  0.93583292  0.84752079  0.50442168     0.15250
H406        H  0.06394195  0.81985819  0.50439650     0.15250
C407        C  0.23926204  0.89258957  0.05078844    -0.10810
C408        C  0.26055312  0.94120163  0.05079304    -0.12370
C409        C  0.23924344  0.77419863  0.05078658    -0.10810
C410        C  0.26056479  0.72625864  0.05079016    -0.12370
C411        C  0.18795241  0.83270751  0.00553575    -0.10810
C412        C  0.16157907  0.83262573  0.97399550    -0.12370
C413        C  0.18793560  0.83270616  0.09600923    -0.10810
C414        C  0.16155334  0.83262532  0.12753839    -0.12370
C415        C  0.66155670  0.99907482  0.97398730    -0.10810
C416        C  0.68793371  0.99918313  0.00552157    -0.12370
C417        C  0.31186288  0.66775274  0.00554917    -0.10810
C418        C  0.33823531  0.66783039  0.97400631    -0.12370
C419        C  0.68794433  0.99918494  0.09599585    -0.10810
C420        C  0.66157307  0.99907942  0.12753984    -0.12370
C421        C  0.31186672  0.66775401  0.09602494    -0.10810
C422        C  0.33824297  0.66783422  0.12756146    -0.12370
C423        C  0.53563839  0.99119162  0.52399909    -0.10880
C424        C  0.49991543  0.99999795  0.49646332     0.11260
C425        C  0.46418388  0.67547018  0.52399480    -0.10880
C426        C  0.46418077  0.67546764  0.57754822    -0.10880
C427        C  0.49990804  0.99999308  0.60508381     0.11260
C428        C  0.53563474  0.99118913  0.57755300    -0.10880
H429        H  0.56374981  0.98377858  0.50440668     0.15250
H430        H  0.43607476  0.68288669  0.50439971     0.15250
H431        H  0.43606952  0.68288227  0.59714051     0.15250
H432        H  0.56374363  0.98377422  0.59714916     0.15250
loop_ 
_geom_bond_atom_site_label_1 
_geom_bond_atom_site_label_2 
_geom_bond_distance 
_geom_bond_site_symmetry_2 
_ccdc_geom_bond_type 
N1            N2   1.322       .  A
N1            C5   1.348       .  A
N1           Cu9   2.076       .  S
N2            C3   1.342       .  A
N2           Cu8   2.065       .  S
C3            C4   1.377       .  A
C3            H6   1.081       .  S
C4            C5   1.381       .  A
C4          C134   1.436       .  S
C5            H7   1.082       .  S
Cu8         N299   2.065   1_545  S
Cu9          N19   2.077       .  S
Cu10         N12   2.076       .  S
Cu10         N18   2.077       .  S
N11          N12   1.322       .  A
N11          C15   1.342       .  A
N11        Cu152   2.065       .  S
N12          C13   1.348       .  A
C13          C14   1.381       .  A
C13          H16   1.082       .  S
C14          C15   1.377       .  A
C14         C132   1.436       .  S
C15          H17   1.081       .  S
N18         N163   1.322       .  A
N18          C22   1.344       .  A
N19         N306   1.322   1_545  A
N19          C20   1.344       .  A
C20          C21   1.388       .  A
C20          H23   1.081       .  S
C21         C310   1.388   1_545  A
C21         C424   1.487   1_545  S
C22         C165   1.388       .  A
C22          H24   1.081       .  S
N25          N26   1.322       .  A
N25          C29   1.348       .  A
N25         Cu33   2.076       .  S
N26          C27   1.342       .  A
N26         Cu32   2.065       .  S
C27          C28   1.377       .  A
C27          H30   1.081   1_556  S
C28          C29   1.381       .  A
C28         C127   1.436       .  S
C29          H31   1.082       .  S
Cu32        N179   2.065       .  S
Cu33         N43   2.077       .  S
Cu34         N36   2.076       .  S
Cu34         N42   2.077       .  S
N35          N36   1.322       .  A
N35          C39   1.342       .  A
N35        Cu320   2.065       .  S
N36          C37   1.348       .  A
C37          C38   1.381       .  A
C37          H40   1.082       .  S
C38          C39   1.377       .  A
C38         C130   1.436       .  S
C39          H41   1.081   1_556  S
N42         N331   1.322   1_545  A
N42          C46   1.344       .  A
N43         N186   1.322       .  A
N43          C44   1.344       .  A
C44          C45   1.388       .  A
C44          H47   1.081       .  S
C45         C190   1.388       .  A
C45         C139   1.487       .  S
C46         C333   1.388   1_545  A
C46          H48   1.081       .  S
C49         C119   1.462       .  S
C49         C121   1.463       .  S
C49         C123   1.466       .  S
C49         C125   1.466       .  S
C50         C122   1.463       .  S
C50         C129   1.466       .  S
C50         C133   1.466       .  S
C50         C408   1.462   1_545  S
N51          N52   1.322       .  A
N51          C55   1.348       .  A
N51         Cu59   2.076       .  S
N52          C53   1.342       .  A
N52         Cu58   2.065       .  S
C53          C54   1.377       .  A
C53          H56   1.081       .  S
C54          C55   1.381       .  A
C54         C108   1.436       .  S
C55          H57   1.082       .  S
Cu58         N61   2.065   1_655  S
Cu59         N69   2.077       .  S
Cu60         N62   2.076       .  S
Cu60         N68   2.077       .  S
N61          N62   1.322       .  A
N61          C65   1.342       .  A
N62          C63   1.348       .  A
C63          C64   1.381       .  A
C63          H66   1.082       .  S
C64          C65   1.377       .  A
C64         C126   1.436       .  S
C65          H67   1.081       .  S
N68          N69   1.322   1_455  A
N68          C72   1.344       .  A
N69          C70   1.344       .  A
C70          C71   1.388       .  A
C70          H73   1.081       .  S
C71          C72   1.388   1_655  A
C71         C113   1.488       .  S
C72          H74   1.081       .  S
N75          N76   1.322       .  A
N75          C79   1.348       .  A
N75         Cu83   2.076       .  S
N76          C77   1.342       .  A
N76         Cu82   2.065   1_455  S
C77          C78   1.377       .  A
C77          H80   1.081   1_556  S
C78          C79   1.381       .  A
C78         C124   1.436       .  S
C79          H81   1.082       .  S
Cu82         N85   2.065       .  S
Cu83         N93   2.077       .  S
Cu84         N86   2.076       .  S
Cu84         N92   2.077       .  S
N85          N86   1.322       .  A
N85          C89   1.342       .  A
N86          C87   1.348       .  A
C87          C88   1.381       .  A
C87          H90   1.082       .  S
C88          C89   1.377       .  A
C88         C105   1.436       .  S
C89          H91   1.081   1_556  S
N92          N93   1.322   1_655  A
N92          C96   1.344       .  A
N93          C94   1.344       .  A
C94          C95   1.388   1_455  A
C94          H97   1.081       .  S
C95          C96   1.388       .  A
C95         C110   1.488       .  S
C96          H98   1.081       .  S
C99         C102   1.462       .  S
C99         C103   1.462       .  S
C99         C106   1.466       .  S
C99         C107   1.466       .  S
C100        C104   1.462       .  S
C100        C128   1.466       .  S
C100        C131   1.466       .  S
C100        C245   1.462       .  S
C101        C388   1.462   1_545  S
C101        C102   1.205       .  T
C103        C104   1.205       .  T
C105        C106   1.206   1_556  T
C107        C108   1.206       .  T
C109        C110   1.406   1_455  A
C109        C114   1.398       .  A
C109        H115   1.081       .  S
C110        C111   1.406       .  A
C111        C112   1.398       .  A
C111        H116   1.081       .  S
C112        C113   1.406       .  A
C112        H117   1.081       .  S
C113        C114   1.406   1_655  A
C114        H118   1.081       .  S
C119        C120   1.205       .  T
C120        C194   1.462       .  S
C121        C122   1.206       .  T
C123        C124   1.206   1_554  T
C125        C126   1.206       .  T
C127        C128   1.206   1_556  T
C129        C130   1.206   1_554  T
C131        C132   1.206       .  T
C133        C134   1.206       .  T
C135        C136   1.406       .  A
C135        C140   1.398       .  A
C135        H141   1.081       .  S
C136        C281   1.406       .  A
C136        C165   1.487       .  S
C137        C138   1.398       .  A
C137        C424   1.406   1_545  A
C137        H142   1.081       .  S
C138        C427   1.406   1_545  A
C138        H143   1.081       .  S
C139        C140   1.406       .  A
C139        C282   1.406       .  A
C140        H144   1.081       .  S
N145        N146   1.322       .  A
N145        C149   1.348       .  A
N145       Cu153   2.076       .  S
N146        C147   1.342       .  A
N146       Cu152   2.065       .  S
C147        C148   1.377       .  A
C147        H150   1.081       .  S
C148        C149   1.381       .  A
C148        C278   1.436       .  S
C149        H151   1.082       .  S
Cu153       N163   2.077       .  S
Cu154       N156   2.076       .  S
Cu154       N162   2.077       .  S
N155        N156   1.322       .  A
N155        C159   1.342       .  A
N155       Cu296   2.065       .  S
N156        C157   1.348       .  A
C157        C158   1.381       .  A
C157        H160   1.082       .  S
C158        C159   1.377       .  A
C158        C276   1.436       .  S
C159        H161   1.081       .  S
N162        N307   1.322       .  A
N162        C166   1.344       .  A
N163        C164   1.344       .  A
C164        C165   1.388       .  A
C164        H167   1.081       .  S
C166        C309   1.388       .  A
C166        H168   1.081       .  S
N169        N170   1.322       .  A
N169        C173   1.348       .  A
N169       Cu177   2.076       .  S
N170        C171   1.342       .  A
N170       Cu176   2.065       .  S
C171        C172   1.377       .  A
C171        H174   1.081   1_556  S
C172        C173   1.381       .  A
C172        C271   1.436       .  S
C173        H175   1.082       .  S
Cu176       N323   2.065       .  S
Cu177       N187   2.077       .  S
Cu178       N180   2.076       .  S
Cu178       N186   2.077       .  S
N179        N180   1.322       .  A
N179        C183   1.342       .  A
N180        C181   1.348       .  A
C181        C182   1.381       .  A
C181        H184   1.082       .  S
C182        C183   1.377       .  A
C182        C274   1.436       .  S
C183        H185   1.081   1_556  S
N186        C190   1.344       .  A
N187        N330   1.322       .  A
N187        C188   1.344       .  A
C188        C189   1.388       .  A
C188        H191   1.081       .  S
C189        C334   1.388       .  A
C189        C283   1.487       .  S
C190        H192   1.081       .  S
C193        C263   1.462       .  S
C193        C265   1.463       .  S
C193        C267   1.466       .  S
C193        C269   1.466       .  S
C194        C266   1.463       .  S
C194        C273   1.466       .  S
C194        C277   1.466       .  S
N195        N196   1.322       .  A
N195        C199   1.348       .  A
N195       Cu203   2.076       .  S
N196        C197   1.342       .  A
N196       Cu202   2.065       .  S
C197        C198   1.377       .  A
C197        H200   1.081       .  S
C198        C199   1.381       .  A
C198        C252   1.436       .  S
C199        H201   1.082       .  S
Cu202       N205   2.065   1_655  S
Cu203       N213   2.077       .  S
Cu204       N206   2.076       .  S
Cu204       N212   2.077       .  S
N205        N206   1.322       .  A
N205        C209   1.342       .  A
N206        C207   1.348       .  A
C207        C208   1.381       .  A
C207        H210   1.082       .  S
C208        C209   1.377       .  A
C208        C270   1.436       .  S
C209        H211   1.081       .  S
N212        N213   1.322   1_455  A
N212        C216   1.344       .  A
N213        C214   1.344       .  A
C214        C215   1.388       .  A
C214        H217   1.081       .  S
C215        C216   1.388   1_655  A
C215        C257   1.488       .  S
C216        H218   1.081       .  S
N219        N220   1.322       .  A
N219        C223   1.348       .  A
N219       Cu227   2.076       .  S
N220        C221   1.342       .  A
N220       Cu226   2.065   1_455  S
C221        C222   1.377       .  A
C221        H224   1.081   1_556  S
C222        C223   1.381       .  A
C222        C268   1.436       .  S
C223        H225   1.082       .  S
Cu226       N229   2.065       .  S
Cu227       N237   2.077       .  S
Cu228       N230   2.076       .  S
Cu228       N236   2.077       .  S
N229        N230   1.322       .  A
N229        C233   1.342       .  A
N230        C231   1.348       .  A
C231        C232   1.381       .  A
C231        H234   1.082       .  S
C232        C233   1.377       .  A
C232        C249   1.436       .  S
C233        H235   1.081   1_556  S
N236        N237   1.322   1_655  A
N236        C240   1.344       .  A
N237        C238   1.344       .  A
C238        C239   1.388   1_455  A
C238        H241   1.081       .  S
C239        C240   1.388       .  A
C239        C254   1.488       .  S
C240        H242   1.081       .  S
C243        C246   1.462       .  S
C243        C247   1.462       .  S
C243        C250   1.466       .  S
C243        C251   1.466       .  S
C244        C389   1.462       .  S
C244        C248   1.462       .  S
C244        C272   1.466       .  S
C244        C275   1.466       .  S
C245        C246   1.205       .  T
C247        C248   1.205       .  T
C249        C250   1.206   1_556  T
C251        C252   1.206       .  T
C253        C254   1.406   1_455  A
C253        C258   1.398       .  A
C253        H259   1.081       .  S
C254        C255   1.406       .  A
C255        C256   1.398       .  A
C255        H260   1.081       .  S
C256        C257   1.406       .  A
C256        H261   1.081       .  S
C257        C258   1.406   1_655  A
C258        H262   1.081       .  S
C263        C264   1.205       .  T
C264        C338   1.462       .  S
C265        C266   1.206       .  T
C267        C268   1.206   1_554  T
C269        C270   1.206       .  T
C271        C272   1.206   1_556  T
C273        C274   1.206   1_554  T
C275        C276   1.206       .  T
C277        C278   1.206       .  T
C279        C280   1.406       .  A
C279        C284   1.398       .  A
C279        H285   1.081       .  S
C280        C425   1.406       .  A
C280        C309   1.487       .  S
C281        C282   1.398       .  A
C281        H286   1.081       .  S
C282        H287   1.081       .  S
C283        C426   1.406       .  A
C283        C284   1.406       .  A
C284        H288   1.081       .  S
N289        N290   1.322       .  A
N289        C293   1.348       .  A
N289       Cu297   2.076       .  S
N290        C291   1.342       .  A
N290       Cu296   2.065       .  S
C291        C292   1.377       .  A
C291        H294   1.081       .  S
C292        C293   1.381       .  A
C292        C422   1.436       .  S
C293        H295   1.082       .  S
Cu297       N307   2.077       .  S
Cu298       N300   2.076       .  S
Cu298       N306   2.077       .  S
N299        N300   1.322       .  A
N299        C303   1.342       .  A
N300        C301   1.348       .  A
C301        C302   1.381       .  A
C301        H304   1.082       .  S
C302        C303   1.377       .  A
C302        C420   1.436       .  S
C303        H305   1.081       .  S
N306        C310   1.344       .  A
N307        C308   1.344       .  A
C308        C309   1.388       .  A
C308        H311   1.081       .  S
C310        H312   1.081       .  S
N313        N314   1.322       .  A
N313        C317   1.348       .  A
N313       Cu321   2.076       .  S
N314        C315   1.342       .  A
N314       Cu320   2.065   1_565  S
C315        C316   1.377       .  A
C315        H318   1.081   1_556  S
C316        C317   1.381       .  A
C316        C415   1.436       .  S
C317        H319   1.082       .  S
Cu321       N331   2.077       .  S
Cu322       N324   2.076       .  S
Cu322       N330   2.077       .  S
N323        N324   1.322       .  A
N323        C327   1.342       .  A
N324        C325   1.348       .  A
C325        C326   1.381       .  A
C325        H328   1.082       .  S
C326        C327   1.377       .  A
C326        C418   1.436       .  S
C327        H329   1.081   1_556  S
N330        C334   1.344       .  A
N331        C332   1.344       .  A
C332        C333   1.388       .  A
C332        H335   1.081       .  S
C333        C427   1.487       .  S
C334        H336   1.081       .  S
C337        C407   1.462       .  S
C337        C409   1.463       .  S
C337        C411   1.466       .  S
C337        C413   1.466       .  S
C338        C410   1.463       .  S
C338        C417   1.466       .  S
C338        C421   1.466       .  S
N339        N340   1.322       .  A
N339        C343   1.348       .  A
N339       Cu347   2.076       .  S
N340        C341   1.342       .  A
N340       Cu346   2.065       .  S
C341        C342   1.377       .  A
C341        H344   1.081       .  S
C342        C343   1.381       .  A
C342        C396   1.436       .  S
C343        H345   1.082       .  S
Cu346       N349   2.065   1_655  S
Cu347       N357   2.077       .  S
Cu348       N350   2.076       .  S
Cu348       N356   2.077       .  S
N349        N350   1.322       .  A
N349        C353   1.342       .  A
N350        C351   1.348       .  A
C351        C352   1.381       .  A
C351        H354   1.082       .  S
C352        C353   1.377       .  A
C352        C414   1.436       .  S
C353        H355   1.081       .  S
N356        N357   1.322   1_455  A
N356        C360   1.344       .  A
N357        C358   1.344       .  A
C358        C359   1.388       .  A
C358        H361   1.081       .  S
C359        C360   1.388   1_655  A
C359        C401   1.488       .  S
C360        H362   1.081       .  S
N363        N364   1.322       .  A
N363        C367   1.348       .  A
N363       Cu371   2.076       .  S
N364        C365   1.342       .  A
N364       Cu370   2.065   1_455  S
C365        C366   1.377       .  A
C365        H368   1.081   1_556  S
C366        C367   1.381       .  A
C366        C412   1.436       .  S
C367        H369   1.082       .  S
Cu370       N373   2.065       .  S
Cu371       N381   2.077       .  S
Cu372       N374   2.076       .  S
Cu372       N380   2.077       .  S
N373        N374   1.322       .  A
N373        C377   1.342       .  A
N374        C375   1.348       .  A
C375        C376   1.381       .  A
C375        H378   1.082       .  S
C376        C377   1.377       .  A
C376        C393   1.436       .  S
C377        H379   1.081   1_556  S
N380        N381   1.322   1_655  A
N380        C384   1.344       .  A
N381        C382   1.344       .  A
C382        C383   1.388   1_455  A
C382        H385   1.081       .  S
C383        C384   1.388       .  A
C383        C398   1.488       .  S
C384        H386   1.081       .  S
C387        C390   1.462       .  S
C387        C391   1.462       .  S
C387        C394   1.466       .  S
C387        C395   1.466       .  S
C388        C392   1.462       .  S
C388        C416   1.466       .  S
C388        C419   1.466       .  S
C389        C390   1.205       .  T
C391        C392   1.205       .  T
C393        C394   1.206   1_556  T
C395        C396   1.206       .  T
C397        C398   1.406   1_455  A
C397        C402   1.398       .  A
C397        H403   1.081       .  S
C398        C399   1.406       .  A
C399        C400   1.398       .  A
C399        H404   1.081       .  S
C400        C401   1.406       .  A
C400        H405   1.081       .  S
C401        C402   1.406   1_655  A
C402        H406   1.081       .  S
C407        C408   1.205       .  T
C409        C410   1.206       .  T
C411        C412   1.206   1_554  T
C413        C414   1.206       .  T
C415        C416   1.206   1_556  T
C417        C418   1.206   1_554  T
C419        C420   1.206       .  T
C421        C422   1.206       .  T
C423        C424   1.406       .  A
C423        C428   1.398       .  A
C423        H429   1.081       .  S
C425        C426   1.398       .  A
C425        H430   1.081       .  S
C426        H431   1.081       .  S
C427        C428   1.406       .  A
C428        H432   1.081       .  S
