geometry optimzed in LAMMPS
_audit_creation_date              2020-12-01 
_audit_creation_method            'lammps2cif' 
_symmetry_space_group_name_H-M    'P1' 
_symmetry_Int_Tables_number       1 
_symmetry_cell_setting            triclinic 
loop_ 
_symmetry_equiv_pos_as_xyz 
  x,y,z 
_cell_length_a                    59.89991232 
_cell_length_b                    60.14334671878487 
_cell_length_c                    59.86115132793341 
_cell_angle_alpha                 90.01854283925879 
_cell_angle_beta                  89.89947554656405 
_cell_angle_gamma                 90.42961990437796 
loop_ 
_atom_site_label 
_atom_site_type_symbol 
_atom_site_fract_x 
_atom_site_fract_y 
_atom_site_fract_z 
_atom_site_charge 
N1          N  0.54697214  0.88160624  0.73859646    -0.00800
C2          C  0.55462381  0.90087012  0.74750683     0.01800
C3          C  0.57692201  0.89902438  0.75295977    -0.21100
C4          C  0.58319213  0.87776628  0.74714771    -0.21300
C5          C  0.56446673  0.86749267  0.73837978     0.01700
H6          H  0.58747909  0.91172382  0.76031873     0.15500
H7          H  0.59960962  0.87063692  0.74905684     0.15500
N8          N  0.54316120  0.08810004  0.79686222    -0.00800
C9          C  0.55127356  0.06887023  0.78854343     0.01800
C10         C  0.57379134  0.07103768  0.78399940    -0.21100
C11         C  0.57972677  0.09248112  0.78974101    -0.21300
C12         C  0.56059526  0.10251980  0.79757915     0.01700
H13         H  0.58472167  0.05841094  0.77733653     0.15500
H14         H  0.59619318  0.09988768  0.78841493     0.15500
N15         N  0.86373601  0.70564860  0.59427791    -0.00800
C16         C  0.88296024  0.71454113  0.60230928     0.01800
C17         C  0.88072370  0.71949397  0.62472499    -0.21100
C18         C  0.85931705  0.71341326  0.63071961    -0.21300
C19         C  0.84932978  0.70498471  0.61172743     0.01700
H20         H  0.89325246  0.72680337  0.63552367     0.15500
H21         H  0.85184542  0.71505639  0.64710219     0.15500
N22         N  0.07029305  0.77121353  0.59620389    -0.00800
C23         C  0.05130444  0.76202600  0.60444097     0.01800
C24         C  0.05376772  0.75717337  0.62683663    -0.21100
C25         C  0.07512034  0.76365982  0.63258922    -0.21300
C26         C  0.08483896  0.77222173  0.61347724     0.01700
H27         H  0.04140760  0.74976417  0.63779715     0.15500
H28         H  0.08270054  0.76228714  0.64892027     0.15500
N29         N  0.56785917  0.70314545  0.43994570    -0.00800
C30         C  0.54879053  0.71205562  0.43193569     0.01800
C31         C  0.55062214  0.71575774  0.40924096    -0.21100
C32         C  0.57164930  0.70888541  0.40307070    -0.21300
C33         C  0.58180669  0.70122556  0.42223632     0.01700
H34         H  0.53807764  0.72272838  0.39836703     0.15500
H35         H  0.57876776  0.70951299  0.38645566     0.15500
N36         N  0.36253098  0.76847786  0.43941928    -0.00800
C37         C  0.38179131  0.75992762  0.43139554     0.01800
C38         C  0.37957630  0.75476456  0.40903265    -0.21100
C39         C  0.35810765  0.76035160  0.40309122    -0.21300
C40         C  0.34804457  0.76870762  0.42205926     0.01700
H41         H  0.39212761  0.74759175  0.39825289     0.15500
H42         H  0.35063266  0.75839324  0.38676054     0.15500
N43         N  0.68313180  0.56103737  0.91415406    -0.00800
C44         C  0.69088168  0.56900542  0.93382597     0.01800
C45         C  0.69430581  0.59169642  0.93238989    -0.21100
C46         C  0.68844922  0.59783583  0.91097580    -0.21300
C47         C  0.68167512  0.57864497  0.90019494     0.01700
H48         H  0.70045118  0.60258431  0.94542979     0.15500
H49         H  0.68914260  0.61444011  0.90404692     0.15500
N50         N  0.74855060  0.56025046  0.11976801    -0.00800
C51         C  0.73930947  0.56822853  0.10079187     0.01800
C52         C  0.73404186  0.59040380  0.10339490    -0.21100
C53         C  0.74022936  0.59622054  0.12481458    -0.21300
C54         C  0.74903836  0.57737210  0.13443359     0.01700
H55         H  0.72640621  0.60114355  0.09113740     0.15500
H56         H  0.73835899  0.61236552  0.13254520     0.15500
O57         O  0.57685799  0.35748060  0.84351206    -0.75800
C58         C  0.63289702  0.38970635  0.87813544     0.85300
O59         O  0.64485516  0.32701917  0.81228615    -0.76900
O60         O  0.66919616  0.32725565  0.88987945    -0.78400
O61         O  0.59251470  0.31001229  0.90697594    -0.78200
O62         O  0.56450138  0.32754811  0.86186111    -0.76800
Zn63       Zn  0.61054170  0.35686756  0.84622144     1.55700
O64         O  0.62177988  0.32987659  0.91897776    -0.78200
Cd65       Cd  0.59381177  0.31288898  0.87250544     1.59700
Cd66       Cd  0.64027650  0.31182336  0.84333200     1.59600
O67         O  0.59465515  0.28124011  0.85896885    -0.78200
O68         O  0.62046110  0.33072252  0.86268026    -1.88700
Cd69       Cd  0.63741229  0.34040773  0.88986121     1.59900
O70         O  0.62583466  0.28045124  0.83839795    -0.78100
O71         O  0.64060519  0.37463973  0.89081904    -0.76800
C72         C  0.63679928  0.34485186  0.80417762     0.85700
C73         C  0.56101862  0.34500300  0.85040143     0.85400
O74         O  0.62099694  0.38526050  0.86109424    -0.75800
C75         C  0.60460905  0.31779791  0.92264448     0.86200
O76         O  0.62356864  0.35718238  0.81517636    -0.75900
C77         C  0.60805392  0.27127624  0.84588370     0.86300
C78         C  0.67994598  0.31485610  0.87647201     0.86700
O79         O  0.67153442  0.30765052  0.85825176    -0.78300
O80         O  0.29779259  0.87439187  0.64257416    -0.75800
C81         C  0.33093314  0.81644104  0.61317763     0.85300
O82         O  0.26381304  0.80942757  0.67693774    -0.76900
O83         O  0.34029209  0.78240134  0.67761715    -0.78400
O84         O  0.36048069  0.85902501  0.69165622    -0.78200
O85         O  0.31639799  0.88740038  0.67212504    -0.76800
Zn86       Zn  0.29922213  0.84073891  0.64494180     1.55700
O87         O  0.37158440  0.82844343  0.67375225    -0.78200
Cd88       Cd  0.32597474  0.85865090  0.68844466     1.59700
Cd89       Cd  0.29507617  0.81352059  0.69177673     1.59600
O90         O  0.31206219  0.85986968  0.72014727    -0.78200
O91         O  0.31529815  0.83165557  0.67179477    -1.88700
Cd92       Cd  0.34200047  0.81358640  0.66312345     1.59900
O93         O  0.29046603  0.82949056  0.72245454    -0.78100
O94         O  0.34346992  0.80932280  0.62873699    -0.76800
C95         C  0.25594982  0.81687489  0.65864876     0.85700
C96         C  0.30512697  0.89047439  0.65439710     0.85400
O97         O  0.31398469  0.82851745  0.61706386    -0.75800
C98         C  0.37577218  0.84603355  0.68489712     0.86200
O99         O  0.26751382  0.82889452  0.64541217    -0.75900
C100        C  0.29839848  0.84742845  0.73075019     0.86300
C101        C  0.32639798  0.77271599  0.69054136     0.86700
O102        O  0.30863069  0.78208966  0.69746715    -0.78300
N103        N  0.04143379  0.58761092  0.29592011    -0.00800
C104        C  0.04900314  0.56855918  0.28671834     0.01800
C105        C  0.07166647  0.57012640  0.28269979    -0.21100
C106        C  0.07824680  0.59102874  0.28966882    -0.21300
C107        C  0.05933899  0.60136523  0.29767700     0.01700
H108        H  0.08223832  0.55751636  0.27544428     0.15500
H109        H  0.09495237  0.59795364  0.28885080     0.15500
N110        N  0.04451511  0.38369820  0.23443516    -0.00800
C111        C  0.05169193  0.40366144  0.24204900     0.01800
C112        C  0.07416780  0.40288469  0.24706503    -0.21100
C113        C  0.08103331  0.38154237  0.24233487    -0.21300
C114        C  0.06245833  0.37017825  0.23463649     0.01700
H115        H  0.08441577  0.41629351  0.25354536     0.15500
H116        H  0.09769901  0.37503822  0.24437548     0.15500
O117        O  0.85412859  0.61021117  0.34339890    -0.75800
C118        C  0.79732454  0.57996201  0.37989221     0.85300
O119        O  0.78724528  0.64175116  0.31234921    -0.76900
O120        O  0.76222551  0.64333445  0.38965661    -0.78400
O121        O  0.83968637  0.65924197  0.40689464    -0.78200
O122        O  0.86725966  0.64021463  0.36106170    -0.76800
Zn123      Zn  0.82043613  0.61145959  0.34694410     1.55700
O124        O  0.80929184  0.64125753  0.41916220    -0.78200
Cd125      Cd  0.83839451  0.65543525  0.37235040     1.59700
Cd126      Cd  0.79206131  0.65738270  0.34312688     1.59600
O127        O  0.83846563  0.68676370  0.35823932    -0.78200
O128        O  0.81120437  0.63824326  0.36289106    -1.88700
Cd129      Cd  0.79383113  0.62973532  0.39030261     1.59900
O130        O  0.80745973  0.68826166  0.33758683    -0.78100
O131        O  0.79002813  0.59552012  0.39228164    -0.76800
C132        C  0.79462970  0.62343626  0.30465860     0.85700
C133        C  0.87027000  0.62267244  0.34956347     0.85400
O134        O  0.80928826  0.58372274  0.36267785    -0.75800
C135        C  0.82690131  0.65273798  0.42267906     0.86200
O136        O  0.80724566  0.61081621  0.31599698    -0.75900
C137        C  0.82552096  0.69694504  0.34494583     0.86300
C138        C  0.75192813  0.65575509  0.37595777     0.86700
O139        O  0.76076728  0.66257142  0.35776418    -0.78300
N140        N  0.86405591  0.26850355  0.94084687    -0.00800
C141        C  0.88320183  0.25996263  0.93252218     0.01800
C142        C  0.88118774  0.25634466  0.90983372    -0.21100
C143        C  0.85997588  0.26288352  0.90399688    -0.21300
C144        C  0.84986335  0.27023609  0.92335100     0.01700
H145        H  0.89369307  0.24952836  0.89876616     0.15500
H146        H  0.85268827  0.26217774  0.88748319     0.15500
N147        N  0.06777887  0.19759165  0.94002697    -0.00800
C148        C  0.04808613  0.20439940  0.93145425     0.01800
C149        C  0.04940005  0.20560691  0.90845061    -0.21100
C150        C  0.07075635  0.19934652  0.90269751    -0.21300
C151        C  0.08162246  0.19454210  0.92241368     0.01700
H152        H  0.03633224  0.21061944  0.89710187     0.15500
H153        H  0.07762446  0.19854024  0.88599022     0.15500
O154        O  0.81254483  0.33631143  0.22766553    -0.75800
C155        C  0.82448465  0.27247801  0.19224303     0.85300
O156        O  0.86456250  0.35226779  0.16808503    -0.76900
O157        O  0.81807243  0.30252452  0.12530834    -0.78400
O158        O  0.75669985  0.33284817  0.16762918    -0.78200
O159        O  0.78246290  0.35343712  0.21425221    -0.76800
Zn160      Zn  0.82814665  0.32274557  0.20078139     1.55700
O161        O  0.76941395  0.30152607  0.15225328    -0.78200
Cd162      Cd  0.78533554  0.34851485  0.18004962     1.59700
Cd163      Cd  0.83315371  0.34941321  0.15359114     1.59600
O164        O  0.78744200  0.38007924  0.16622871    -0.78200
O165        O  0.81284879  0.33089982  0.17314120    -1.88700
Cd166      Cd  0.80380487  0.30309683  0.15684051     1.59900
O167        O  0.82061209  0.38140239  0.14915287    -0.78100
O168        O  0.81424882  0.27485025  0.17376905    -0.76800
C169        C  0.87200703  0.34535417  0.18674136     0.85700
C170        C  0.79501974  0.34790114  0.23044806     0.85400
O171        O  0.83015787  0.28905383  0.20431094    -0.75800
C172        C  0.75350482  0.31462580  0.15714318     0.86200
O173        O  0.85993885  0.33437608  0.20043038    -0.75900
C174        C  0.80235557  0.39045514  0.15509522     0.86300
C175        C  0.83016486  0.31613888  0.11426665     0.86700
O176        O  0.83694560  0.33460290  0.12236178    -0.78300
N177        N  0.36412394  0.20013192  0.09447704    -0.00800
C178        C  0.38295197  0.21046759  0.10149488     0.01800
C179        C  0.38091125  0.21667133  0.12361484    -0.21100
C180        C  0.35993453  0.20986805  0.13042209    -0.21300
C181        C  0.35007864  0.19977022  0.11217534     0.01700
H182        H  0.39328730  0.22517582  0.13369258     0.15500
H183        H  0.35268105  0.21210123  0.14683037     0.15500
N184        N  0.56805472  0.26732597  0.09443978    -0.00800
C185        C  0.54871783  0.25882634  0.10254479     0.01800
C186        C  0.55037955  0.25535026  0.12527583    -0.21100
C187        C  0.57162264  0.26198650  0.13133643    -0.21300
C188        C  0.58208161  0.26923271  0.11206110     0.01700
H189        H  0.53764616  0.24856747  0.13621548     0.15500
H190        H  0.57870873  0.26138149  0.14793676     0.15500
N191        N  0.24502804  0.90909471  0.91422542    -0.00800
C192        C  0.23556385  0.90155832  0.93333308     0.01800
C193        C  0.22982348  0.87937563  0.93121771    -0.21100
C194        C  0.23596762  0.87308271  0.90992184    -0.21300
C195        C  0.24521313  0.89168276  0.89990610     0.01700
H196        H  0.22193890  0.86894622  0.94371644     0.15500
H197        H  0.23384438  0.85677202  0.90256038     0.15500
N198        N  0.17959294  0.91103528  0.11941231    -0.00800
C199        C  0.18878121  0.90292183  0.10046757     0.01800
C200        C  0.19385770  0.88071187  0.10307612    -0.21100
C201        C  0.18752711  0.87499736  0.12449572    -0.21300
C202        C  0.17885904  0.89395153  0.13408130     0.01700
H203        H  0.20135568  0.86986352  0.09079636     0.15500
H204        H  0.18914238  0.85883114  0.13222817     0.15500
O205        O  0.35516538  0.11013463  0.84232170    -0.75800
C206        C  0.29882294  0.07974004  0.87779123     0.85300
O207        O  0.28873855  0.14363310  0.81111455    -0.76900
O208        O  0.26401756  0.14300702  0.88957592    -0.78400
O209        O  0.34197621  0.15830799  0.90584157    -0.78200
O210        O  0.36859433  0.13999945  0.85998485    -0.76800
Zn211      Zn  0.32147310  0.11201492  0.84519024     1.55700
O212        O  0.31170850  0.14024253  0.91823396    -0.78200
Cd213      Cd  0.33989576  0.15541929  0.87134286     1.59700
Cd214      Cd  0.29300556  0.15805969  0.84275124     1.59600
O215        O  0.33963642  0.18723251  0.85829834    -0.78200
O216        O  0.31249986  0.13849378  0.86185082    -1.88700
Cd217      Cd  0.29566819  0.12939561  0.88941145     1.59900
O218        O  0.30798878  0.18939984  0.83868133    -0.78100
O219        O  0.29210136  0.09506271  0.89080857    -0.76800
C220        C  0.29643235  0.12567528  0.80282745     0.85700
C221        C  0.37144486  0.12226242  0.84875874     0.85400
O222        O  0.31007476  0.08387608  0.86017811    -0.75800
C223        C  0.32949787  0.15145602  0.92168915     0.86200
O224        O  0.30885248  0.11267192  0.81395645    -0.75900
C225        C  0.32617675  0.19792015  0.84594029     0.86300
C226        C  0.25325788  0.15536487  0.87616919     0.86700
O227        O  0.26163425  0.16237327  0.85780759    -0.78300
N228        N  0.18780587  0.06039004  0.41384242    -0.00800
C229        C  0.19656411  0.06732944  0.43347319     0.01800
C230        C  0.19956382  0.09011065  0.43336867    -0.21100
C231        C  0.19238388  0.09746690  0.41281391    -0.21300
C232        C  0.18527780  0.07887272  0.40121866     0.01700
H233        H  0.20619654  0.10026714  0.44676312     0.15500
H234        H  0.19236888  0.11449476  0.40698491     0.15500
N235        N  0.25472143  0.06113095  0.61733971    -0.00800
C236        C  0.24566361  0.06889500  0.59822756     0.01800
C237        C  0.23987706  0.09095105  0.60063254    -0.21100
C238        C  0.24561779  0.09694677  0.62212288    -0.21300
C239        C  0.25468291  0.07830572  0.63193178     0.01700
H240        H  0.23218003  0.10147014  0.58821961     0.15500
H241        H  0.24329789  0.11307036  0.62976978     0.15500
O242        O  0.11912259  0.13897609  0.22848635    -0.75800
C243        C  0.10785783  0.19998554  0.18970144     0.85300
O244        O  0.06738950  0.12085389  0.16792583    -0.76900
O245        O  0.11764649  0.16761091  0.12435599    -0.78400
O246        O  0.17543999  0.13642536  0.16936518    -0.78200
O247        O  0.14846484  0.11976066  0.21628991    -0.76800
Zn248      Zn  0.10363886  0.15030232  0.20051892     1.55700
O249        O  0.16463007  0.16827672  0.15365602    -0.78200
Cd250      Cd  0.14602757  0.12256686  0.18181788     1.59700
Cd251      Cd  0.09908070  0.12288667  0.15395301     1.59600
O252        O  0.14302319  0.09068617  0.16888831    -0.78200
O253        O  0.11950689  0.14099889  0.17356058    -1.88700
Cd254      Cd  0.13007812  0.16790293  0.15663849     1.59900
O255        O  0.11082557  0.09066304  0.15010199    -0.78100
O256        O  0.11921092  0.19697322  0.17193996    -0.76800
C257        C  0.05986524  0.12759780  0.18663326     0.85700
C258        C  0.13631853  0.12714365  0.23209235     0.85400
O259        O  0.10134864  0.18388902  0.20196882    -0.75800
C260        C  0.17972986  0.15442514  0.15892029     0.86200
O261        O  0.07190065  0.13839662  0.20046828    -0.75900
C262        C  0.12834254  0.08092316  0.15695903     0.86300
C263        C  0.10491027  0.15438803  0.11360199     0.86700
O264        O  0.09653327  0.13689716  0.12234038    -0.78300
N265        N  0.88853203  0.88017951  0.29351866    -0.00800
C266        C  0.88023298  0.89849163  0.28343657     0.01800
C267        C  0.85838485  0.89477617  0.27700365    -0.21100
C268        C  0.85305995  0.87335639  0.28339495    -0.21300
C269        C  0.87186527  0.86485014  0.29347709     0.01700
H270        H  0.84748190  0.90637494  0.26865928     0.15500
H271        H  0.83720374  0.86495818  0.28100675     0.15500
N272        N  0.88797912  0.08808430  0.23645218    -0.00800
C273        C  0.87976168  0.06830843  0.24365601     0.01800
C274        C  0.85706080  0.06976194  0.24736957    -0.21100
C275        C  0.85110560  0.09125876  0.24223762    -0.21300
C276        C  0.87039863  0.10208675  0.23557946     0.01700
H277        H  0.84601852  0.05662484  0.25309514     0.15500
H278        H  0.83451198  0.09818873  0.24318389     0.15500
O279        O  0.07511404  0.85904312  0.34302858    -0.75800
C280        C  0.13206752  0.88999840  0.37812136     0.85300
O281        O  0.14398279  0.82757125  0.31239308    -0.76900
O282        O  0.16649321  0.82611810  0.39017179    -0.78400
O283        O  0.08979801  0.80959767  0.40596221    -0.78200
O284        O  0.06212987  0.82927685  0.36125409    -0.76800
Zn285      Zn  0.10898137  0.85763460  0.34587476     1.55700
O286        O  0.11877913  0.82961031  0.41843271    -0.78200
Cd287      Cd  0.09111024  0.81350223  0.37146325     1.59700
Cd288      Cd  0.13792767  0.81177246  0.34295300     1.59600
O289        O  0.09117454  0.78214059  0.35697542    -0.78200
O290        O  0.11822810  0.83105327  0.36218882    -1.88700
Cd291      Cd  0.13504708  0.84031449  0.38968728     1.59900
O292        O  0.12260611  0.78090598  0.33684433    -0.78100
O293        O  0.13911697  0.87466523  0.39092039    -0.76800
C294        C  0.13618190  0.84551046  0.30423809     0.85700
C295        C  0.05897687  0.84691541  0.34994988     0.85400
O296        O  0.12018205  0.88583969  0.36097447    -0.75800
C297        C  0.10171240  0.81729585  0.42183998     0.86200
O298        O  0.12263560  0.85774866  0.31498906    -0.75900
C299        C  0.10447316  0.77204075  0.34387687     0.86300
C300        C  0.17693646  0.81310608  0.37708631     0.86700
O301        O  0.16852746  0.80609569  0.35878165    -0.78300
N302        N  0.39072113  0.38128063  0.79625903    -0.00800
C303        C  0.38250014  0.39956629  0.78606827     0.01800
C304        C  0.36054171  0.39599256  0.77995473    -0.21100
C305        C  0.35508488  0.37469544  0.78665214    -0.21300
C306        C  0.37391539  0.36610950  0.79660299     0.01700
H307        H  0.34964364  0.40761189  0.77163512     0.15500
H308        H  0.33913096  0.36641612  0.78452301     0.15500
N309        N  0.38743214  0.58823791  0.73625864    -0.00800
C310        C  0.37933323  0.56886557  0.74462362     0.01800
C311        C  0.35669790  0.57049374  0.74864794    -0.21100
C312        C  0.35064153  0.59170385  0.74256494    -0.21300
C313        C  0.36981662  0.60219434  0.73506564     0.01700
H314        H  0.34578772  0.55769074  0.75531296     0.15500
H315        H  0.33408867  0.59872010  0.74360146     0.15500
N316        N  0.75103710  0.40749179  0.41656174    -0.00800
C317        C  0.74266311  0.39951237  0.43594795     0.01800
C318        C  0.73837450  0.37698786  0.43413622    -0.21100
C319        C  0.74434776  0.37096606  0.41269572    -0.21300
C320        C  0.75201825  0.39007724  0.40234404     0.01700
H321        H  0.73154362  0.36616343  0.44690588     0.15500
H322        H  0.74308394  0.35452197  0.40544953     0.15500
N323        N  0.68577023  0.40921673  0.62052073    -0.00800
C324        C  0.69484629  0.40211411  0.60113029     0.01800
C325        C  0.70028569  0.37989412  0.60259139    -0.21100
C326        C  0.69430657  0.37308526  0.62377913    -0.21300
C327        C  0.68547170  0.39144311  0.63435835     0.01700
H328        H  0.70788881  0.36979099  0.58974131     0.15500
H329        H  0.69630393  0.35661030  0.63071687     0.15500
O330        O  0.59172598  0.65972033  0.62845539    -0.75800
C331        C  0.55992650  0.62261888  0.68353268     0.85300
O332        O  0.62453633  0.68934576  0.69588499    -0.76900
O333        O  0.62331407  0.61241152  0.71963144    -0.78400
O334        O  0.64021264  0.59577914  0.64242702    -0.78200
O335        O  0.62101366  0.64123099  0.61504021    -0.76800
Zn336      Zn  0.59274514  0.65593799  0.66217277     1.55700
O337        O  0.62150417  0.58351159  0.67235545    -0.78200
Cd338      Cd  0.63669275  0.63016713  0.64380795     1.59700
Cd339      Cd  0.63927002  0.65849277  0.69052087     1.59600
O340        O  0.66841310  0.64426731  0.64373933    -0.78200
O341        O  0.61939174  0.63948001  0.67100502    -1.88700
Cd342      Cd  0.60990152  0.61213029  0.68781273     1.59900
O343        O  0.67022960  0.66410491  0.67525277    -0.78100
O344        O  0.57533039  0.60998523  0.69066370    -0.76800
C345        C  0.60631857  0.69754336  0.68874114     0.85700
C346        C  0.60370057  0.65306627  0.61218631     0.85400
O347        O  0.56418801  0.64023117  0.67241475    -0.75800
C348        C  0.63328266  0.58004734  0.65497334     0.86200
O349        O  0.59308542  0.68668688  0.67607815    -0.75900
C350        C  0.67882184  0.65721650  0.65702584     0.86300
C351        C  0.63669246  0.62526369  0.73005081     0.86700
O352        O  0.64445957  0.64315246  0.72145472    -0.78300
C353        C  0.66533326  0.47213431  0.63334995     0.19700
C354        C  0.67608220  0.48497481  0.64971436    -0.09400
C355        C  0.66934380  0.50686790  0.65372165    -0.10200
C356        C  0.65181101  0.51608324  0.64139109     0.21300
C357        C  0.64109131  0.50325054  0.62499281    -0.12300
C358        C  0.64783534  0.48135348  0.62098131    -0.10500
C359        C  0.64483357  0.53863990  0.64563140     0.02300
C360        C  0.63930295  0.55753260  0.64957330    -0.30600
C361        C  0.67236259  0.44961080  0.62913996     0.03600
C362        C  0.67845576  0.43088215  0.62533755    -0.32200
H363        H  0.68965793  0.47807300  0.65935810     0.14700
H364        H  0.67778809  0.51659520  0.66643345     0.14500
H365        H  0.62753317  0.51015806  0.61533091     0.14400
H366        H  0.63942086  0.47162787  0.60824911     0.13400
C367        C  0.71208367  0.42655945  0.54095360     0.19700
C368        C  0.69682337  0.42952235  0.52350181    -0.09400
C369        C  0.70412198  0.42880839  0.50127031    -0.10200
C370        C  0.72669724  0.42509216  0.49639553     0.21300
C371        C  0.74209953  0.42323736  0.51386952    -0.12300
C372        C  0.73481467  0.42397816  0.53607267    -0.10500
C373        C  0.73345039  0.41994442  0.47385919     0.02300
C374        C  0.73827561  0.41229554  0.45585630    -0.30600
C375        C  0.70425043  0.42265089  0.56340782     0.03600
C376        C  0.69899765  0.41537494  0.58146962    -0.32200
H377        H  0.67917216  0.43121003  0.52702455     0.14700
H378        H  0.69200576  0.42998434  0.48791807     0.14500
H379        H  0.75953462  0.42006476  0.51034712     0.14400
H380        H  0.74673075  0.42134153  0.54938866     0.13400
C381        C  0.45121638  0.60038706  0.71603450     0.19700
C382        C  0.45894241  0.62224301  0.71300203    -0.09400
C383        C  0.48079683  0.62627272  0.70555484    -0.10200
C384        C  0.49514709  0.60849562  0.70105905     0.21300
C385        C  0.48741817  0.58661569  0.70407018    -0.12300
C386        C  0.46554295  0.58258212  0.71152595    -0.10500
C387        C  0.51787748  0.61281694  0.69388661     0.02300
C388        C  0.53698569  0.61704174  0.68865082    -0.30600
C389        C  0.42858947  0.59625885  0.72356290     0.03600
C390        C  0.40959227  0.59269255  0.72956413    -0.32200
H391        H  0.44808154  0.63616793  0.71639846     0.14700
H392        H  0.48652978  0.64326228  0.70338093     0.14500
H393        H  0.49830590  0.57269705  0.70074031     0.14400
H394        H  0.45981217  0.56560079  0.71377960     0.13400
C395        C  0.40230927  0.50771162  0.76032560     0.19700
C396        C  0.40048012  0.50141126  0.78282039    -0.09400
C397        C  0.40085417  0.47888487  0.78879492    -0.10200
C398        C  0.40305510  0.46244924  0.77233277     0.21300
C399        C  0.40563029  0.46878709  0.74991470    -0.12300
C400        C  0.40525959  0.49132347  0.74393809    -0.10500
C401        C  0.39996429  0.43925807  0.77809091     0.02300
C402        C  0.39409094  0.42043007  0.78233699    -0.30600
C403        C  0.39844112  0.53054743  0.75390387     0.03600
C404        C  0.39184275  0.54887963  0.74904791    -0.32200
H405        H  0.39788048  0.51384167  0.79564557     0.14700
H406        H  0.39854250  0.47425983  0.80613735     0.14500
H407        H  0.40704148  0.45629087  0.73696436     0.14400
H408        H  0.40638848  0.49589621  0.72647007     0.13400
C409        C  0.99479480  0.86208058  0.33240572     0.19700
C410        C  0.98922999  0.88306845  0.32396138    -0.09400
C411        C  0.96750024  0.88722306  0.31645814    -0.10200
C412        C  0.95116333  0.87042142  0.31734406     0.21300
C413        C  0.95667323  0.84949630  0.32596559    -0.12300
C414        C  0.97839412  0.84534375  0.33346589    -0.10500
C415        C  0.92889387  0.87448054  0.30909826     0.02300
C416        C  0.91025928  0.87736419  0.30197335    -0.30600
C417        C  0.01742369  0.85748864  0.33933700     0.03600
C418        C  0.03640608  0.85307225  0.34449696    -0.32200
H419        H  0.00172740  0.89614680  0.32298710     0.14700
H420        H  0.96349151  0.90346096  0.30981853     0.14500
H421        H  0.94423197  0.83634816  0.32673113     0.14400
H422        H  0.98244582  0.82903184  0.33989463     0.13400
C423        C  0.90127638  0.96106158  0.26882611     0.19700
C424        C  0.90503635  0.97751757  0.28502058    -0.09400
C425        C  0.90534022  0.00004122  0.27895403    -0.10200
C426        C  0.90187230  0.00628965  0.25665466     0.21300
C427        C  0.89885823  0.98979016  0.24035969    -0.12300
C428        C  0.89856622  0.96728666  0.24641846    -0.10500
C429        C  0.89850819  0.02941315  0.25101548     0.02300
C430        C  0.89215527  0.04804235  0.24703470    -0.30600
C431        C  0.89776215  0.93813601  0.27535492     0.03600
C432        C  0.89174663  0.91941276  0.27984825    -0.32200
H433        H  0.90689078  0.97300380  0.30243008     0.14700
H434        H  0.90737579  0.01259494  0.29178443     0.14500
H435        H  0.89583652  0.99434011  0.22312544     0.14400
H436        H  0.89537356  0.95479450  0.23375399     0.13400
C437        C  0.95174309  0.10270741  0.21832553     0.19700
C438        C  0.95545895  0.11779800  0.20083760    -0.09400
C439        C  0.97726548  0.12296049  0.19401307    -0.10200
C440        C  0.99550558  0.11306803  0.20464455     0.21300
C441        C  0.99179037  0.09797383  0.22212838    -0.12300
C442        C  0.96998451  0.09280833  0.22895044    -0.10500
C443        C  0.01801373  0.11844477  0.19776093     0.02300
C444        C  0.03702812  0.12273523  0.19244187    -0.30600
C445        C  0.92923458  0.09733744  0.22522219     0.03600
C446        C  0.91023353  0.09300113  0.23056418    -0.32200
H447        H  0.94150731  0.12555595  0.19248201     0.14700
H448        H  0.97989476  0.13465869  0.18048703     0.14500
H449        H  0.00574199  0.09022027  0.23048922     0.14400
H450        H  0.96735566  0.08110936  0.24247564     0.13400
C451        C  0.15262992  0.95388236  0.39063573     0.19700
C452        C  0.14533772  0.97170936  0.37750417    -0.09400
C453        C  0.15321248  0.99330804  0.38169380    -0.10200
C454        C  0.16845363  0.99724839  0.39902430     0.21300
C455        C  0.17587871  0.97940518  0.41205022    -0.12300
C456        C  0.16800759  0.95780751  0.40785845    -0.10500
C457        C  0.17598113  0.01963083  0.40378333     0.02300
C458        C  0.18165577  0.03845827  0.40818429    -0.30600
C459        C  0.14448409  0.93158070  0.38640959     0.03600
C460        C  0.13828701  0.91272316  0.38283283    -0.32200
H461        H  0.13351732  0.96893175  0.36409698     0.14700
H462        H  0.14731269  0.00694470  0.37152080     0.14500
H463        H  0.18762611  0.98220386  0.42552022     0.14400
H464        H  0.17384365  0.94419059  0.41809523     0.13400
C465        C  0.15266858  0.10746864  0.29538301     0.19700
C466        C  0.14205314  0.11587882  0.31445846    -0.09400
C467        C  0.14771563  0.10789180  0.33568325    -0.10200
C468        C  0.16398493  0.09139223  0.33798880     0.21300
C469        C  0.17458980  0.08299103  0.31891666    -0.12300
C470        C  0.16892848  0.09097325  0.29769860    -0.10500
C471        C  0.17053561  0.08395587  0.35995924     0.02300
C472        C  0.17676832  0.07980542  0.37868345    -0.30600
C473        C  0.14680052  0.11552739  0.27342997     0.03600
C474        C  0.14200188  0.12143956  0.25474722    -0.32200
H475        H  0.12946316  0.12862266  0.31293578     0.14700
H476        H  0.13952878  0.11468792  0.35029193     0.14500
H477        H  0.18732813  0.07039841  0.32045266     0.14400
H478        H  0.17726639  0.08432268  0.28311166     0.13400
C479        C  0.21514819  0.04246475  0.49284659     0.19700
C480        C  0.19957801  0.04258419  0.51034351    -0.09400
C481        C  0.20683747  0.04345872  0.53253852    -0.10200
C482        C  0.22971719  0.04422037  0.53739462     0.21300
C483        C  0.24530451  0.04311556  0.51994348    -0.12300
C484        C  0.23803778  0.04223472  0.49772765    -0.10500
C485        C  0.23696772  0.04907654  0.55985488     0.02300
C486        C  0.24180819  0.05634371  0.57803288    -0.30600
C487        C  0.20778337  0.04623841  0.47024386     0.03600
C488        C  0.20207658  0.05357994  0.45239229    -0.32200
H489        H  0.18185885  0.04315375  0.50681319     0.14700
H490        H  0.19461547  0.04461664  0.54584094     0.14500
H491        H  0.26302722  0.04399867  0.52343874     0.14400
H492        H  0.25025376  0.04252545  0.48436420     0.13400
C493        C  0.34757726  0.26065184  0.82982499     0.19700
C494        C  0.35651559  0.26467103  0.80853464    -0.09400
C495        C  0.36505738  0.28572816  0.80307012    -0.10200
C496        C  0.36480595  0.30294301  0.81886904     0.21300
C497        C  0.35609327  0.29886579  0.84025936    -0.12300
C498        C  0.34755011  0.27778498  0.84573279    -0.10500
C499        C  0.37168510  0.32514900  0.81247432     0.02300
C500        C  0.37473768  0.34394306  0.80590171    -0.30600
C501        C  0.33866476  0.23891741  0.83532793     0.03600
C502        C  0.33210552  0.22040311  0.83992577    -0.32200
H503        H  0.35670530  0.25159069  0.79609673     0.14700
H504        H  0.37150463  0.28868181  0.78640973     0.14500
H505        H  0.35556150  0.31205905  0.85256673     0.14400
H506        H  0.34075671  0.27491329  0.86227149     0.13400
C507        C  0.27313830  0.08737740  0.69655532     0.19700
C508        C  0.29506554  0.09314394  0.70249185    -0.09400
C509        C  0.29968045  0.10140660  0.72391061    -0.10200
C510        C  0.28238483  0.10404055  0.73950814     0.21300
C511        C  0.26052631  0.09796912  0.73364696    -0.12300
C512        C  0.25591903  0.08970951  0.71225450    -0.10500
C513        C  0.28701084  0.11287641  0.76151273     0.02300
C514        C  0.29096617  0.11953083  0.78018297    -0.30600
C515        C  0.26794052  0.08080858  0.67393156     0.03600
C516        C  0.26250607  0.07783653  0.65472613    -0.32200
H517        H  0.30850387  0.09161970  0.69046923     0.14700
H518        H  0.31666652  0.10595432  0.72821752     0.14500
H519        H  0.24701125  0.09983833  0.74552750     0.14400
H520        H  0.23887072  0.08551388  0.70783482     0.13400
C521        C  0.15952013  0.88412008  0.19816124     0.19700
C522        C  0.15085627  0.86261577  0.20123141    -0.09400
C523        C  0.14684995  0.85446173  0.22276742    -0.10200
C524        C  0.15150147  0.86772924  0.24144900     0.21300
C525        C  0.16000349  0.88933243  0.23841305    -0.12300
C526        C  0.16403914  0.89749942  0.21682237    -0.10500
C527        C  0.14719965  0.85924501  0.26363748     0.02300
C528        C  0.14275263  0.85241709  0.28212615    -0.30600
C529        C  0.16500685  0.89159787  0.17588703     0.03600
C530        C  0.17066890  0.89475370  0.15676338    -0.32200
H531        H  0.14745602  0.85203670  0.18696655     0.14700
H532        H  0.14022483  0.83778067  0.22484618     0.14500
H533        H  0.16360890  0.89979539  0.25270640     0.14400
H534        H  0.17089624  0.91408090  0.21470557     0.13400
C535        C  0.14275426  0.01671045  0.14062688     0.19700
C536        C  0.13750748  0.99913616  0.15513330    -0.09400
C537        C  0.14487883  0.97760912  0.15039340    -0.10200
C538        C  0.15754285  0.97353340  0.13113066     0.21300
C539        C  0.16261590  0.99106181  0.11651443    -0.12300
C540        C  0.15524555  0.01258987  0.12125563    -0.10500
C541        C  0.16551296  0.95143881  0.12655020     0.02300
C542        C  0.17209984  0.93283035  0.12311666    -0.30600
C543        C  0.13619274  0.03909514  0.14606565     0.03600
C544        C  0.13191046  0.05808580  0.15090104    -0.32200
H545        H  0.12795163  0.00211482  0.17020715     0.14700
H546        H  0.14086602  0.96419299  0.16182372     0.14500
H547        H  0.17240060  0.98812411  0.10157939     0.14400
H548        H  0.15949352  0.02605018  0.10996244     0.13400
C549        C  0.26716569  0.97173159  0.90140741     0.19700
C550        C  0.26457734  0.98054153  0.87990322    -0.09400
C551        C  0.27164222  0.00229146  0.87523466    -0.10200
C552        C  0.28135365  0.01539295  0.89203344     0.21300
C553        C  0.28405921  0.00654249  0.91352218    -0.12300
C554        C  0.27698407  0.98477593  0.91819575    -0.10500
C555        C  0.28814274  0.03799161  0.88727248     0.02300
C556        C  0.29330122  0.05699778  0.88304997    -0.30600
C557        C  0.25954399  0.94942609  0.90622930     0.03600
C558        C  0.25289997  0.93078956  0.90999353    -0.32200
H559        H  0.25700943  0.97063885  0.86678431     0.14700
H560        H  0.26942256  0.00892803  0.85856869     0.14500
H561        H  0.29151010  0.01649206  0.92666910     0.14400
H562        H  0.27906987  0.97816778  0.93489031     0.13400
C563        C  0.20505263  0.92583428  0.03897411     0.19700
C564        C  0.18933425  0.92627769  0.02165803    -0.09400
C565        C  0.19641966  0.92625325  0.99933676    -0.10200
C566        C  0.21926543  0.92575667  0.99418042     0.21300
C567        C  0.23497762  0.92631219  0.01149822    -0.12300
C568        C  0.22789543  0.92635471  0.03381021    -0.10500
C569        C  0.22638633  0.92147231  0.97152531     0.02300
C570        C  0.23141037  0.91434518  0.95333195    -0.30600
C571        C  0.19794237  0.92182892  0.06169779     0.03600
C572        C  0.19300363  0.91511669  0.08009312    -0.32200
H573        H  0.17163786  0.92559263  0.02538080     0.14700
H574        H  0.18408472  0.92553157  0.98613943     0.14500
H575        H  0.25266609  0.92563290  0.00778635     0.14400
H576        H  0.24022540  0.92572810  0.04700685     0.13400
C577        C  0.24325657  0.16788659  0.13750097     0.19700
C578        C  0.26069062  0.15280887  0.14077724    -0.09400
C579        C  0.28223614  0.15788010  0.13308248    -0.10200
C580        C  0.28644119  0.17802349  0.12200398     0.21300
C581        C  0.26895265  0.19296101  0.11850622    -0.12300
C582        C  0.24743198  0.18789845  0.12619642    -0.10500
C583        C  0.30890300  0.18414999  0.11569237     0.02300
C584        C  0.32776952  0.19059860  0.11249794    -0.30600
C585        C  0.22113165  0.16296503  0.14581358     0.03600
C586        C  0.20239522  0.15907986  0.15230501    -0.32200
H587        H  0.25768540  0.13727627  0.14947215     0.14700
H588        H  0.29565279  0.14628342  0.13607914     0.14500
H589        H  0.27202687  0.20867106  0.11015967     0.14400
H590        H  0.23411242  0.19968597  0.12353926     0.13400
C591        C  0.34412914  0.16767840  0.98639682     0.19700
C592        C  0.36295892  0.18050042  0.99194725    -0.09400
C593        C  0.36694312  0.18644539  0.01421350    -0.10200
C594        C  0.35212760  0.17962059  0.03106593     0.21300
C595        C  0.33330630  0.16679273  0.02552618    -0.12300
C596        C  0.32932451  0.16084397  0.00326048    -0.10500
C597        C  0.35610918  0.18611377  0.05392000     0.02300
C598        C  0.35971543  0.19227894  0.07277790    -0.30600
C599        C  0.33979570  0.16173644  0.96343518     0.03600
C600        C  0.33549254  0.15687088  0.94432835    -0.32200
H601        H  0.37450182  0.18595033  0.97907994     0.14700
H602        H  0.38151340  0.19642340  0.01827889     0.14500
H603        H  0.32168846  0.16147061  0.03838108     0.14400
H604        H  0.31467758  0.15098504  0.99918459     0.13400
C605        C  0.48888230  0.23924942  0.07788433     0.19700
C606        C  0.48339359  0.21717513  0.08319264    -0.09400
C607        C  0.46112654  0.21000966  0.08278862    -0.10200
C608        C  0.44416056  0.22485644  0.07705927     0.21300
C609        C  0.44973008  0.24663730  0.07065592    -0.12300
C610        C  0.47204450  0.25382176  0.07106966    -0.10500
C611        C  0.42118048  0.21874433  0.08114210     0.02300
C612        C  0.40286103  0.21436046  0.08842370    -0.30600
C613        C  0.51113284  0.24745331  0.08241649     0.03600
C614        C  0.52900170  0.25337384  0.08973397    -0.32200
H615        H  0.49618886  0.20580841  0.08873743     0.14700
H616        H  0.45704261  0.19323454  0.08807349     0.14500
H617        H  0.43675457  0.25836887  0.06647639     0.14400
H618        H  0.47600800  0.27098859  0.06715782     0.13400
C619        C  0.64677952  0.28842723  0.12109019     0.19700
C620        C  0.66492627  0.27548124  0.11421066    -0.09400
C621        C  0.68657997  0.28061967  0.12160083    -0.10200
C622        C  0.69025620  0.29870317  0.13599322     0.21300
C623        C  0.67211038  0.31165264  0.14281839    -0.12300
C624        C  0.65048599  0.30652392  0.13543256    -0.10500
C625        C  0.71255221  0.30401135  0.14377876     0.02300
C626        C  0.73115748  0.30875541  0.15018237    -0.30600
C627        C  0.62424154  0.28248147  0.11457618     0.03600
C628        C  0.60502272  0.27693584  0.11150015    -0.32200
H629        H  0.66231812  0.26131469  0.10332300     0.14700
H630        H  0.70041161  0.27043288  0.11619252     0.14500
H631        H  0.67465760  0.32564821  0.15394522     0.14400
H632        H  0.63662600  0.31654797  0.14108539     0.13400
C633        C  0.84444630  0.20966179  0.20914846     0.19700
C634        C  0.86474258  0.20220394  0.20020950    -0.09400
C635        C  0.87241832  0.18075410  0.20503821    -0.10200
C636        C  0.85985497  0.16659980  0.21886947     0.21300
C637        C  0.83955151  0.17405271  0.22776567    -0.12300
C638        C  0.83188056  0.19547104  0.22293558    -0.10500
C639        C  0.86730652  0.14428989  0.22374347     0.02300
C640        C  0.87084558  0.12512725  0.22866355    -0.30600
C641        C  0.83654621  0.23179480  0.20409000     0.03600
C642        C  0.83051932  0.25035582  0.19925525    -0.32200
H643        H  0.87461540  0.21295619  0.18948744     0.14700
H644        H  0.88807388  0.17521552  0.19795953     0.14500
H645        H  0.82960800  0.16326954  0.23839913     0.14400
H646        H  0.81615999  0.20093801  0.22992717     0.13400
C647        C  0.77114725  0.38325625  0.33748319     0.19700
C648        C  0.78691463  0.36660426  0.33354244    -0.09400
C649        C  0.79172171  0.35987590  0.31169534    -0.10200
C650        C  0.78077323  0.36971144  0.29359650     0.21300
C651        C  0.76522721  0.38662238  0.29748092    -0.12300
C652        C  0.76040263  0.39335931  0.31937958    -0.10500
C653        C  0.78530001  0.36211321  0.27116643     0.02300
C654        C  0.78947045  0.35542002  0.25259410    -0.30600
C655        C  0.76505388  0.38874024  0.36014656     0.03600
C656        C  0.75947471  0.39088588  0.37941733    -0.32200
H657        H  0.79521267  0.35854829  0.34738204     0.14700
H658        H  0.80376314  0.34680559  0.30893874     0.14500
H659        H  0.75664952  0.39437416  0.28364096     0.14400
H660        H  0.74806479  0.40613825  0.32219984     0.13400
C661        C  0.08140335  0.18294134  0.00467141     0.19700
C662        C  0.09762168  0.19461942  0.01689823    -0.09400
C663        C  0.10238562  0.18844424  0.03892330    -0.10200
C664        C  0.09096877  0.17055382  0.04884130     0.21300
C665        C  0.07475532  0.15888240  0.03661284    -0.12300
C666        C  0.06998989  0.16505803  0.01459789    -0.10500
C667        C  0.09576858  0.16431765  0.07158356     0.02300
C668        C  0.09982690  0.15949615  0.09072047    -0.30600
C669        C  0.07664906  0.18903373  0.98187647     0.03600
C670        C  0.07257530  0.19335232  0.96261781    -0.32200
H671        H  0.10659244  0.20844144  0.00940757     0.14700
H672        H  0.11494512  0.19760775  0.04820845     0.14500
H673        H  0.06580502  0.14503667  0.04408856     0.14400
H674        H  0.05744856  0.15587316  0.00530924     0.13400
C675        C  0.14687792  0.17852871  0.91393552     0.19700
C676        C  0.16216048  0.19603766  0.91081236    -0.09400
C677        C  0.18365996  0.19179623  0.90265953    -0.10200
C678        C  0.19004746  0.17001061  0.89748329     0.21300
C679        C  0.17484605  0.15245925  0.90084711    -0.12300
C680        C  0.15333446  0.15670458  0.90899788    -0.10500
C681        C  0.21216800  0.16564289  0.88883103     0.02300
C682        C  0.23080478  0.16147000  0.88227451    -0.30600
C683        C  0.12414502  0.18321333  0.92049079     0.03600
C684        C  0.10475602  0.18792517  0.92334766    -0.32200
H685        H  0.15734402  0.21300537  0.91433899     0.14700
H686        H  0.19521520  0.20551957  0.90020398     0.14500
H687        H  0.17954585  0.13553303  0.89697753     0.14400
H688        H  0.14164932  0.14303068  0.91110968     0.13400
C689        C  0.85232376  0.28637253  0.00520647     0.19700
C690        C  0.86479325  0.27690957  0.02252751    -0.09400
C691        C  0.86087250  0.28312958  0.04473842    -0.10200
C692        C  0.84447386  0.29888040  0.04977100     0.21300
C693        C  0.83199579  0.30832547  0.03245361    -0.12300
C694        C  0.83591156  0.30210443  0.01025039    -0.10500
C695        C  0.84026127  0.30521525  0.07265062     0.02300
C696        C  0.83611007  0.31042267  0.09169743    -0.30600
C697        C  0.85636713  0.27994965  0.98231226     0.03600
C698        C  0.85985470  0.27460098  0.96316374    -0.32200
H699        H  0.87751930  0.26472805  0.01886497     0.14700
H700        H  0.87059661  0.27565451  0.05796105     0.14500
H701        H  0.81923399  0.32047118  0.03611627     0.14400
H702        H  0.82614420  0.30954072  0.99703792     0.13400
C703        C  0.98746235  0.22347500  0.95412523     0.19700
C704        C  0.98316572  0.24555538  0.96027757    -0.09400
C705        C  0.96120373  0.25353079  0.96043798    -0.10200
C706        C  0.94339710  0.23947307  0.95445347     0.21300
C707        C  0.94766471  0.21721463  0.94905371    -0.12300
C708        C  0.96957358  0.20925971  0.94889112    -0.10500
C709        C  0.92120945  0.24825507  0.95122313     0.02300
C710        C  0.90312256  0.25449140  0.94492501    -0.30600
C711        C  0.01010945  0.21610424  0.95044872     0.03600
C712        C  0.02825784  0.21025957  0.94388857    -0.32200
H713        H  0.99682836  0.25682610  0.96407726     0.14700
H714        H  0.95821968  0.27083575  0.96437192     0.14500
H715        H  0.93414024  0.20622561  0.94410164     0.14400
H716        H  0.97262904  0.19226264  0.94380504     0.13400
C717        C  0.76889880  0.47128110  0.40351567     0.19700
C718        C  0.77388593  0.47779205  0.38158429    -0.09400
C719        C  0.77965690  0.49990448  0.37695847    -0.10200
C720        C  0.78049188  0.51560980  0.39424745     0.21300
C721        C  0.77550452  0.50909228  0.41618147    -0.12300
C722        C  0.76972972  0.48697759  0.42080772    -0.10500
C723        C  0.78653068  0.53835720  0.38948939     0.02300
C724        C  0.79159173  0.55736668  0.38532137    -0.30600
C725        C  0.76273211  0.44857274  0.40821703     0.03600
C726        C  0.75736954  0.42958734  0.41206084    -0.32200
H727        H  0.77327452  0.46580035  0.36808435     0.14700
H728        H  0.78346722  0.50474680  0.35993480     0.14500
H729        H  0.77608469  0.52108646  0.42967845     0.14400
H730        H  0.76588288  0.48213363  0.43782350     0.13400
C731        C  0.86370518  0.80162647  0.31609602     0.19700
C732        C  0.86712076  0.78361861  0.30163337    -0.09400
C733        C  0.85910012  0.76240363  0.30728453    -0.10200
C734        C  0.84752139  0.75905996  0.32739839     0.21300
C735        C  0.84444192  0.77698403  0.34203645    -0.12300
C736        C  0.85245997  0.79819501  0.33638548    -0.10500
C737        C  0.83871615  0.73731991  0.33296790     0.02300
C738        C  0.83190117  0.71902459  0.33801620    -0.19000
C739        C  0.87004369  0.82385708  0.30931749     0.03600
C740        C  0.87277929  0.84266179  0.30267178    -0.32200
H741        H  0.87559593  0.78605545  0.28581451     0.14700
H742        H  0.86166444  0.74869564  0.29584778     0.14500
H743        H  0.83559114  0.77463006  0.35766275     0.14400
H744        H  0.84951582  0.81198298  0.34763120     0.13400
C745        C  0.08740670  0.26246791  0.20700937     0.19700
C746        C  0.09402902  0.27241671  0.22713993    -0.09400
C747        C  0.08662769  0.29377010  0.23265365    -0.10200
C748        C  0.07250264  0.30532111  0.21811289     0.21300
C749        C  0.06565809  0.29527033  0.19811369    -0.12300
C750        C  0.07306110  0.27390741  0.19259782    -0.10500
C751        C  0.06604975  0.32784400  0.22328435     0.02300
C752        C  0.06277917  0.34707160  0.22806834    -0.30600
C753        C  0.09540574  0.24063332  0.20105682     0.03600
C754        C  0.10164106  0.22224812  0.19591104    -0.32200
H755        H  0.10506216  0.26376964  0.23845979     0.14700
H756        H  0.09214214  0.30137878  0.24811353     0.14500
H757        H  0.05484269  0.30403480  0.18667531     0.14400
H758        H  0.06777018  0.26640330  0.17701304     0.13400
C759        C  0.98102981  0.36859300  0.21612566     0.19700
C760        C  0.96375834  0.38291586  0.22238742    -0.09400
C761        C  0.94167476  0.37798658  0.21645542    -0.10200
C762        C  0.93671470  0.35872129  0.20419227     0.21300
C763        C  0.95398112  0.34434945  0.19799392    -0.12300
C764        C  0.97607754  0.34927939  0.20393294    -0.10500
C765        C  0.91396388  0.35386027  0.19783821     0.02300
C766        C  0.89484824  0.35002326  0.19261170    -0.30600
C767        C  0.00375658  0.37366911  0.22233738     0.03600
C768        C  0.02264798  0.37814845  0.22782770    -0.32200
H769        H  0.96736344  0.39788143  0.23183902     0.14700
H770        H  0.92848783  0.38921797  0.22136951     0.14500
H771        H  0.95037519  0.32939209  0.18853439     0.14400
H772        H  0.98927625  0.33806063  0.19902317     0.13400
C773        C  0.07042155  0.66514181  0.31746674     0.19700
C774        C  0.05500420  0.68162410  0.32318177    -0.09400
C775        C  0.06238542  0.70327976  0.32805790    -0.10200
C776        C  0.08522673  0.70862808  0.32723163     0.21300
C777        C  0.10063237  0.69209538  0.32163560    -0.12300
C778        C  0.09326061  0.67046747  0.31676813    -0.10500
C779        C  0.09282078  0.73098876  0.33226711     0.02300
C780        C  0.09866730  0.74971530  0.33703217    -0.30600
C781        C  0.06305912  0.64288310  0.31179192     0.03600
C782        C  0.05938587  0.62393516  0.30600249    -0.32200
H783        H  0.03731862  0.67778250  0.32376096     0.14700
H784        H  0.05028369  0.71585619  0.33241220     0.14500
H785        H  0.11831910  0.69592502  0.32097745     0.14400
H786        H  0.10537253  0.65791655  0.31234339     0.13400
C787        C  0.93382494  0.60884049  0.32896702     0.19700
C788        C  0.93878781  0.58889923  0.31794436    -0.09400
C789        C  0.96068137  0.58454384  0.31102825    -0.10200
C790        C  0.97773293  0.60013286  0.31505308     0.21300
C791        C  0.97272573  0.62014794  0.32588496    -0.12300
C792        C  0.95084945  0.62449788  0.33279895    -0.10500
C793        C  0.00035117  0.59564324  0.30816002     0.02300
C794        C  0.01934614  0.59203727  0.30249751    -0.30600
C795        C  0.91136614  0.61317272  0.33652538     0.03600
C796        C  0.89261925  0.61712331  0.34279330    -0.32200
H797        H  0.92577708  0.57668725  0.31481498     0.14700
H798        H  0.96431930  0.56902322  0.30263249     0.14500
H799        H  0.98574128  0.63234554  0.32905273     0.14400
H800        H  0.94724004  0.64000265  0.34123422     0.13400
C801        C  0.02514257  0.46370287  0.25574047     0.19700
C802        C  0.02374165  0.46913900  0.27847202    -0.09400
C803        C  0.02325395  0.49142616  0.28518789    -0.10200
C804        C  0.02414973  0.50843862  0.26921466     0.21300
C805        C  0.02431225  0.50299282  0.24642810    -0.12300
C806        C  0.02482056  0.48068408  0.23970607    -0.10500
C807        C  0.02846699  0.53104571  0.27616946     0.02300
C808        C  0.03585425  0.54900831  0.28154159    -0.30600
C809        C  0.03033117  0.44121068  0.24924896     0.03600
C810        C  0.03823589  0.42324772  0.24513666    -0.32200
H811        H  0.02426645  0.45620419  0.29104710     0.14700
H812        H  0.02342370  0.49537887  0.30284458     0.14500
H813        H  0.02529644  0.51596707  0.23390902     0.14400
H814        H  0.02617943  0.47674501  0.22209893     0.13400
C815        C  0.27541668  0.99818169  0.62942950     0.19700
C816        C  0.28390499  0.99263187  0.65049141    -0.09400
C817        C  0.29053215  0.97081018  0.65498697    -0.10200
C818        C  0.28872677  0.95438579  0.63844519     0.21300
C819        C  0.28028498  0.95994695  0.61736169    -0.12300
C820        C  0.27365597  0.98177728  0.61286373    -0.10500
C821        C  0.29515119  0.93180084  0.64326254     0.02300
C822        C  0.30005509  0.91289971  0.64786993    -0.30600
C823        C  0.26830515  0.02061199  0.62493740     0.03600
C824        C  0.26213049  0.03935511  0.62139699    -0.32200
H825        H  0.28531503  0.00514154  0.66345022     0.14700
H826        H  0.29696334  0.96672951  0.67137215     0.14500
H827        H  0.27873859  0.94740444  0.60445173     0.14400
H828        H  0.26708737  0.98583736  0.59652882     0.13400
C829        C  0.35994374  0.66656043  0.71716427     0.19700
C830        C  0.36060519  0.68322562  0.73355425    -0.09400
C831        C  0.35286197  0.70462641  0.72873536    -0.10200
C832        C  0.34430744  0.70949929  0.70752072     0.21300
C833        C  0.34363029  0.69283834  0.69113902    -0.12300
C834        C  0.35137271  0.67144491  0.69595651    -0.10500
C835        C  0.33668893  0.73165762  0.70238468     0.02300
C836        C  0.33121452  0.75033189  0.69746335    -0.30600
C837        C  0.36680160  0.64417882  0.72248743     0.03600
C838        C  0.37020336  0.62506096  0.72764295    -0.32200
H839        H  0.36695157  0.67964112  0.75008637     0.14700
H840        H  0.35352395  0.71734076  0.74154124     0.14500
H841        H  0.33710287  0.69637230  0.67466582     0.14400
H842        H  0.35052718  0.65868705  0.68320367     0.13400
C843        C  0.26738421  0.88262225  0.83619913     0.19700
C844        C  0.28286374  0.86542908  0.83363935    -0.09400
C845        C  0.28914301  0.85828784  0.81227977    -0.10200
C846        C  0.27996221  0.86823472  0.79326122     0.21300
C847        C  0.26461874  0.88558314  0.79578646    -0.12300
C848        C  0.25832222  0.89273182  0.81718569    -0.10500
C849        C  0.28619014  0.86050672  0.77124343     0.02300
C850        C  0.29160310  0.85413899  0.75285191    -0.30600
C851        C  0.26008616  0.88892548  0.85833749     0.03600
C852        C  0.25364959  0.89186253  0.87726245    -0.32200
H853        H  0.28988931  0.85736045  0.84816643     0.14700
H854        H  0.30101422  0.84488832  0.81060613     0.14500
H855        H  0.25739505  0.89344172  0.78124545     0.14400
H856        H  0.24623593  0.90593210  0.81889218     0.13400
C857        C  0.58962987  0.29956197  0.98661999     0.19700
C858        C  0.56873130  0.29031151  0.99193599    -0.09400
C859        C  0.56423200  0.28316198  0.01376213    -0.10200
C860        C  0.58063325  0.28521905  0.03034153     0.21300
C861        C  0.60154904  0.29432338  0.02495675    -0.12300
C862        C  0.60603694  0.30146789  0.00316967    -0.10500
C863        C  0.57602121  0.27838552  0.05296455     0.02300
C864        C  0.57246635  0.27316783  0.07211505    -0.30600
C865        C  0.59441375  0.30681901  0.96417095     0.03600
C866        C  0.59888682  0.31232987  0.94530042    -0.32200
H867        H  0.55594822  0.28866213  0.97924862     0.14700
H868        H  0.54799348  0.27613784  0.01771923     0.14500
H869        H  0.61434889  0.29598348  0.03762486     0.14400
H870        H  0.62227985  0.30849691  0.99923966     0.13400
C871        C  0.45374000  0.36995196  0.81788847     0.19700
C872        C  0.46161296  0.37808736  0.83838571    -0.09400
C873        C  0.48327819  0.37310963  0.84548248    -0.10200
C874        C  0.49718542  0.35997056  0.83212200     0.21300
C875        C  0.48928793  0.35180022  0.81165420    -0.12300
C876        C  0.46763986  0.35677281  0.80456385    -0.10500
C877        C  0.51957682  0.35496990  0.83927091     0.02300
C878        C  0.53844390  0.35060265  0.84470870    -0.30600
C879        C  0.43136484  0.37484416  0.81059300     0.03600
C880        C  0.41260023  0.37818532  0.80412210    -0.32200
H881        H  0.45101876  0.38824150  0.84886575     0.14700
H882        H  0.48918202  0.37951423  0.86134146     0.14500
H883        H  0.49986369  0.34161819  0.80117690     0.14400
H884        H  0.46173877  0.35033280  0.78871643     0.13400
C885        C  0.66546460  0.38027896  0.69826009     0.19700
C886        C  0.66598895  0.35758010  0.70354891    -0.09400
C887        C  0.66013398  0.35030716  0.72497925    -0.10200
C888        C  0.65372562  0.36567147  0.74131572     0.21300
C889        C  0.65318700  0.38840282  0.73606103    -0.12300
C890        C  0.65905728  0.39569315  0.71457919    -0.10500
C891        C  0.64782474  0.35803227  0.76342307     0.02300
C892        C  0.64292289  0.35159167  0.78192036    -0.30600
C893        C  0.67164926  0.38746394  0.67608595     0.03600
C894        C  0.67747804  0.39106707  0.65710083    -0.32200
H895        H  0.67094625  0.34549571  0.69110052     0.14700
H896        H  0.66063475  0.33271744  0.72881371     0.14500
H897        H  0.64827234  0.40046005  0.74854633     0.14400
H898        H  0.65861801  0.41327695  0.71071737     0.13400
C899        C  0.74286535  0.29916486  0.89741905     0.19700
C900        C  0.75986375  0.31532378  0.89706599    -0.09400
C901        C  0.78114568  0.31034162  0.90528412    -0.10200
C902        C  0.78557979  0.28919101  0.91400619     0.21300
C903        C  0.76851893  0.27309757  0.91452784    -0.12300
C904        C  0.74723943  0.27807827  0.90630917    -0.10500
C905        C  0.80796917  0.28350958  0.92086095     0.02300
C906        C  0.82708003  0.27799138  0.92404604    -0.30600
C907        C  0.72093403  0.30425843  0.88885712     0.03600
C908        C  0.70237792  0.30877915  0.88244338    -0.32200
H909        H  0.75672082  0.33170189  0.89029813     0.14700
H910        H  0.79420667  0.32287371  0.90455648     0.14500
H911        H  0.77174240  0.25661712  0.92100090     0.14400
H912        H  0.73426161  0.26544611  0.90673948     0.13400
C913        C  0.77149239  0.49799688  0.13129838     0.19700
C914        C  0.78751715  0.49434751  0.14793136    -0.09400
C915        C  0.79502901  0.47276273  0.15227784    -0.10200
C916        C  0.78656857  0.45471650  0.13999603     0.21300
C917        C  0.77065031  0.45842399  0.12329984    -0.12300
C918        C  0.76315098  0.47997512  0.11895938    -0.10500
C919        C  0.79358539  0.43231951  0.14490105     0.02300
C920        C  0.79828118  0.41328507  0.14920920    -0.30600
C921        C  0.76338370  0.52012302  0.12702989     0.03600
C922        C  0.75643945  0.53859808  0.12353229    -0.32200
H923        H  0.79408051  0.50813768  0.15761156     0.14700
H924        H  0.80726684  0.47013265  0.16529567     0.14500
H925        H  0.76390352  0.44462913  0.11375413     0.14400
H926        H  0.75075180  0.48256402  0.10608608     0.13400
C927        C  0.76784682  0.58550658  0.19913964     0.19700
C928        C  0.75087561  0.59251863  0.21363280    -0.09400
C929        C  0.75612918  0.60033784  0.23503970    -0.10200
C930        C  0.77840645  0.60125654  0.24211094     0.21300
C931        C  0.79537053  0.59397051  0.22774286    -0.12300
C932        C  0.79011217  0.58614986  0.20631287    -0.10500
C933        C  0.78384248  0.60977115  0.26401753     0.02300
C934        C  0.78853109  0.61652955  0.28245146    -0.30600
C935        C  0.76244902  0.57928619  0.17645420     0.03600
C936        C  0.75696906  0.57661325  0.15720813    -0.32200
H937        H  0.73361970  0.59229815  0.20824972     0.14700
H938        H  0.74285670  0.60588530  0.24596707     0.14500
H939        H  0.81265583  0.59456321  0.23300550     0.14400
H940        H  0.80341128  0.58096795  0.19523721     0.13400
C941        C  0.65353000  0.60288588  0.79226331     0.19700
C942        C  0.67584567  0.60008559  0.79862203    -0.09400
C943        C  0.68099707  0.59200924  0.81994066    -0.10200
C944        C  0.66388149  0.58660938  0.83505907     0.21300
C945        C  0.64155144  0.58890219  0.82850628    -0.12300
C946        C  0.63639766  0.59697633  0.80717640    -0.10500
C947        C  0.66930079  0.58058574  0.85779051     0.02300
C948        C  0.67451110  0.57804281  0.87713155    -0.30600
C949        C  0.64820306  0.61195563  0.77056253     0.03600
C950        C  0.64333433  0.61890454  0.75226064    -0.32200
H951        H  0.68925370  0.60447177  0.78725016     0.14700
H952        H  0.69832392  0.59045658  0.82480590     0.14500
H953        H  0.62814960  0.58492964  0.84003557     0.14400
H954        H  0.61907633  0.59894325  0.80245435     0.13400
C955        C  0.65039721  0.45394113  0.89172925     0.19700
C956        C  0.63531821  0.47150451  0.88957000    -0.09400
C957        C  0.64227298  0.49333079  0.89395728    -0.10200
C958        C  0.66432638  0.49767431  0.90052645     0.21300
C959        C  0.67939451  0.48010956  0.90268782    -0.12300
C960        C  0.67244397  0.45829323  0.89829887    -0.10500
C961        C  0.67142073  0.52010390  0.90522991     0.02300
C962        C  0.67703729  0.53895512  0.90933840    -0.30600
C963        C  0.64337962  0.43147997  0.88705118     0.03600
C964        C  0.63815458  0.41249806  0.88304290    -0.32200
H965        H  0.61824003  0.46833256  0.88448606     0.14700
H966        H  0.63047879  0.50679135  0.89225290     0.14500
H967        H  0.69647256  0.48327531  0.90777592     0.14400
H968        H  0.68424568  0.44483820  0.90000384     0.13400
C969        C  0.72200403  0.54522446  0.03951433     0.19700
C970        C  0.73754179  0.54344326  0.02206349    -0.09400
C971        C  0.73034520  0.54335192  0.99977917    -0.10200
C972        C  0.70755187  0.54506352  0.99474921     0.21300
C973        C  0.69195188  0.54581994  0.01222383    -0.12300
C974        C  0.69914477  0.54589914  0.03450030    -0.10500
C975        C  0.70053108  0.54921363  0.97200774     0.02300
C976        C  0.69544854  0.55622930  0.95377489    -0.30600
C977        C  0.72949239  0.54924530  0.06215819     0.03600
C978        C  0.73483185  0.55591412  0.08048584    -0.32200
H979        H  0.75525979  0.54315433  0.02562820     0.14700
H980        H  0.74262727  0.54302253  0.98648329     0.14500
H981        H  0.67431741  0.54741777  0.00863704     0.14400
H982        H  0.68694027  0.54752664  0.04776363     0.13400
C983        C  0.23984298  0.79589741  0.39732447     0.19700
C984        C  0.25124544  0.77760492  0.38850382    -0.09400
C985        C  0.27283993  0.77264554  0.39588861    -0.10200
C986        C  0.28324079  0.78589610  0.41219593     0.21300
C987        C  0.27182660  0.80416393  0.42106005    -0.12300
C988        C  0.25021189  0.80912579  0.41367153    -0.10500
C989        C  0.30584361  0.78103044  0.41911461     0.02300
C990        C  0.32509117  0.77605254  0.42250243    -0.30600
C991        C  0.21763867  0.80122342  0.38952624     0.03600
C992        C  0.19908833  0.80621969  0.38338186    -0.32200
H993        H  0.24350167  0.76724485  0.37585371     0.14700
H994        H  0.28148504  0.75855462  0.38877145     0.14500
H995        H  0.27966301  0.81463574  0.43355481     0.14400
H996        H  0.24163676  0.82333265  0.42062568     0.13400
C997        C  0.34380020  0.79957291  0.54823595     0.19700
C998        C  0.32774613  0.80411703  0.53187815    -0.09400
C999        C  0.33157310  0.79819728  0.50957829    -0.10200
C1000       C  0.35147739  0.78767971  0.50347950     0.21300
C1001       C  0.36758739  0.78322553  0.51981675    -0.12300
C1002       C  0.36375817  0.78914737  0.54212509    -0.10500
C1003       C  0.35522322  0.78118795  0.48056404     0.02300
C1004       C  0.35843723  0.77543101  0.46149392    -0.30600
C1005       C  0.33971375  0.80551430  0.57124612     0.03600
C1006       C  0.33594457  0.81051712  0.59042966    -0.32200
H1007       H  0.31225261  0.81216438  0.53637100     0.14700
H1008       H  0.31898508  0.80172437  0.49712711     0.14500
H1009       H  0.38303985  0.77509621  0.51533115     0.14400
H1010       H  0.37630466  0.78553902  0.55459477     0.13400
C1011       C  0.58056341  0.68521772  0.50404780     0.19700
C1012       C  0.59790837  0.67040177  0.50867291    -0.09400
C1013       C  0.60210410  0.66379595  0.53069126    -0.10200
C1014       C  0.58898941  0.67194758  0.54825562     0.21300
C1015       C  0.57170045  0.68684843  0.54365108    -0.12300
C1016       C  0.56749896  0.69345586  0.52161780    -0.10500
C1017       C  0.59342127  0.66511488  0.57094213     0.02300
C1018       C  0.59771857  0.65944284  0.58981242    -0.30600
C1019       C  0.57607972  0.69178621  0.48129720     0.03600
C1020       C  0.57229393  0.69708346  0.46220787    -0.32200
H1021       H  0.60814337  0.66392052  0.49526497     0.14700
H1022       H  0.61555369  0.65232219  0.53401416     0.14500
H1023       H  0.56147234  0.69332801  0.55706436     0.14400
H1024       H  0.55405076  0.70492618  0.51828088     0.13400
C1025       C  0.68871366  0.67214152  0.39558025     0.19700
C1026       C  0.67648663  0.68929525  0.38571918    -0.09400
C1027       C  0.65507736  0.69431449  0.39357408    -0.10200
C1028       C  0.64571546  0.68226598  0.41138200     0.21300
C1029       C  0.65792440  0.66509250  0.42126063    -0.12300
C1030       C  0.67936918  0.66006723  0.41339542    -0.10500
C1031       C  0.62341008  0.68740941  0.41892562     0.02300
C1032       C  0.60440330  0.69300232  0.42255504    -0.30600
C1033       C  0.71083376  0.66696775  0.38752053     0.03600
C1034       C  0.72949063  0.66224611  0.38150993    -0.32200
H1035       H  0.68347319  0.69876101  0.37195897     0.14700
H1036       H  0.64578737  0.70755737  0.38571020     0.14500
H1037       H  0.65087366  0.65557644  0.43495281     0.14400
H1038       H  0.68863999  0.64676485  0.42117389     0.13400
C1039       C  0.44299531  0.74344528  0.45412406     0.19700
C1040       C  0.44809402  0.72097430  0.45076054    -0.09400
C1041       C  0.47031446  0.71391914  0.45092021    -0.10200
C1042       C  0.48767762  0.72925686  0.45447103     0.21300
C1043       C  0.48256841  0.75162432  0.45859131    -0.12300
C1044       C  0.46029693  0.75869832  0.45841986    -0.10500
C1045       C  0.51055469  0.72252350  0.45103352     0.02300
C1046       C  0.52888387  0.71719370  0.44454640    -0.30600
C1047       C  0.42043055  0.75100161  0.45043108     0.03600
C1048       C  0.40205896  0.75600629  0.44384585    -0.32200
H1049       H  0.43495525  0.70904925  0.44710837     0.14700
H1050       H  0.47399578  0.69666632  0.44737296     0.14500
H1051       H  0.49581616  0.76373505  0.46103559     0.14400
H1052       H  0.45666045  0.77616117  0.46074840     0.13400
C1053       C  0.08079502  0.78939343  0.53171066     0.19700
C1054       C  0.10250180  0.79344087  0.52386464    -0.09400
C1055       C  0.10609923  0.79918071  0.50147748    -0.10200
C1056       C  0.08802080  0.80091903  0.48675650     0.21300
C1057       C  0.06629062  0.79687230  0.49458653    -0.12300
C1058       C  0.06268905  0.79112161  0.51699841    -0.10500
C1059       C  0.09188597  0.80679144  0.46367605     0.02300
C1060       C  0.09591240  0.81165982  0.44449550    -0.30600
C1061       C  0.07717322  0.78329750  0.55476869     0.03600
C1062       C  0.07414526  0.77789155  0.57398374    -0.32200
H1063       H  0.11663862  0.79212697  0.53503816     0.14700
H1064       H  0.12297581  0.80224142  0.49564431     0.14500
H1065       H  0.05216938  0.79813612  0.48338811     0.14400
H1066       H  0.04582612  0.78799632  0.52283633     0.13400
C1067       C  0.14876624  0.79300396  0.62310198     0.19700
C1068       C  0.15200839  0.80779362  0.64096020    -0.09400
C1069       C  0.17360608  0.81255158  0.64866134    -0.10200
C1070       C  0.19213107  0.80251302  0.63860144     0.21300
C1071       C  0.18889386  0.78780893  0.62068749    -0.12300
C1072       C  0.16729889  0.78305070  0.61298913    -0.10500
C1073       C  0.21443685  0.80735593  0.64651444     0.02300
C1074       C  0.23327329  0.81152591  0.65253898    -0.30600
C1075       C  0.12640006  0.78696660  0.61622351     0.03600
C1076       C  0.10741858  0.78084285  0.61289931    -0.32200
H1077       H  0.13783685  0.81543856  0.64909488     0.14700
H1078       H  0.17584082  0.82394291  0.66251277     0.14500
H1079       H  0.20304611  0.77993168  0.61275327     0.14400
H1080       H  0.16504593  0.77142698  0.59933840     0.13400
C1081       C  0.74178503  0.67518317  0.63696174     0.19700
C1082       C  0.75817017  0.65869670  0.63570244    -0.09400
C1083       C  0.77963156  0.66393526  0.62788623    -0.10200
C1084       C  0.78486252  0.68569381  0.62119161     0.21300
C1085       C  0.76846981  0.70218393  0.62240008    -0.12300
C1086       C  0.74699719  0.69694367  0.63021922    -0.10500
C1087       C  0.80736735  0.69142746  0.61450482     0.02300
C1088       C  0.82652062  0.69704277  0.61129798    -0.30600
C1089       C  0.71962879  0.66963349  0.64491906     0.03600
C1090       C  0.70107170  0.66431748  0.65099762    -0.32200
H1091       H  0.75438226  0.64181860  0.64084248     0.14700
H1092       H  0.79218837  0.65108135  0.62728011     0.14500
H1093       H  0.77234876  0.71912008  0.61751722     0.14400
H1094       H  0.73451573  0.70985683  0.63108565     0.13400
C1095       C  0.85024225  0.68596592  0.53071743     0.19700
C1096       C  0.86601284  0.68926515  0.51368444    -0.09400
C1097       C  0.86139140  0.68227902  0.49183680    -0.10200
C1098       C  0.84095882  0.67192582  0.48682380     0.21300
C1099       C  0.82510567  0.66874331  0.50382613    -0.12300
C1100       C  0.82973067  0.67573537  0.52569313    -0.10500
C1101       C  0.83628146  0.66468306  0.46426161     0.02300
C1102       C  0.83227540  0.65894729  0.44530756    -0.30600
C1103       C  0.85518842  0.69296987  0.55329815     0.03600
C1104       C  0.85931793  0.69882782  0.57218992    -0.32200
H1105       H  0.88190443  0.69717830  0.51730414     0.14700
H1106       H  0.87376863  0.68491207  0.47886970     0.14500
H1107       H  0.80921387  0.66083043  0.50019442     0.14400
H1108       H  0.81735982  0.67311147  0.53867098     0.13400
C1109       C  0.98965702  0.74568318  0.58192681     0.19700
C1110       C  0.98447069  0.72292677  0.58089232    -0.09400
C1111       C  0.96215721  0.71576217  0.58050658    -0.10200
C1112       C  0.94483460  0.73130189  0.58111145     0.21300
C1113       C  0.95003290  0.75408550  0.58149858    -0.12300
C1114       C  0.97235006  0.76125034  0.58190199    -0.10500
C1115       C  0.92196262  0.72396493  0.58403439     0.02300
C1116       C  0.90333844  0.71878264  0.59001283    -0.30600
C1117       C  0.01243567  0.75279639  0.58575260     0.03600
C1118       C  0.03091261  0.75774308  0.59225845    -0.32200
H1119       H  0.99765070  0.71069709  0.58125061     0.14700
H1120       H  0.95842867  0.69811062  0.58057091     0.14500
H1121       H  0.93684309  0.76628389  0.58233408     0.14400
H1122       H  0.97607394  0.77886756  0.58304664     0.13400
C1123       C  0.47942571  0.09938605  0.81664631     0.19700
C1124       C  0.47429159  0.11866131  0.82870496    -0.09400
C1125       C  0.45234722  0.12253898  0.83567840    -0.10200
C1126       C  0.43537995  0.10717073  0.83064533     0.21300
C1127       C  0.44051060  0.08785802  0.81861746    -0.12300
C1128       C  0.46247632  0.08397368  0.81164214    -0.10500
C1129       C  0.41270195  0.11151551  0.83745081     0.02300
C1130       C  0.39381220  0.11596508  0.84284272    -0.30600
C1131       C  0.50206202  0.09544380  0.80948338     0.03600
C1132       C  0.52105499  0.09214159  0.80362986    -0.32200
H1133       H  0.48723330  0.13069774  0.83267886     0.14700
H1134       H  0.44859663  0.13755432  0.84490948     0.14500
H1135       H  0.42754501  0.07587401  0.81456626     0.14400
H1136       H  0.46623038  0.06900631  0.80233421     0.13400
C1137       C  0.58800086  0.20857746  0.82828579     0.19700
C1138       C  0.58999496  0.20069776  0.80634438    -0.09400
C1139       C  0.58150309  0.17969872  0.80063919    -0.10200
C1140       C  0.57090544  0.16643058  0.81680610     0.21300
C1141       C  0.56885032  0.17432618  0.83874357    -0.12300
C1142       C  0.57734193  0.19534697  0.84445256    -0.10500
C1143       C  0.56355433  0.14422538  0.81107984     0.02300
C1144       C  0.56012672  0.12521776  0.80542352    -0.30600
C1145       C  0.59645972  0.23037223  0.83411738     0.03600
C1146       C  0.60255784  0.24888641  0.83923693    -0.32200
H1147       H  0.59814750  0.21074315  0.79367711     0.14700
H1148       H  0.58340731  0.17371491  0.78367752     0.14500
H1149       H  0.56090394  0.16417307  0.85145490     0.14400
H1150       H  0.57564907  0.20125081  0.86146384     0.13400
C1151       C  0.58769632  0.76068460  0.70590346     0.19700
C1152       C  0.57332422  0.76392592  0.72411324    -0.09400
C1153       C  0.56637352  0.78538567  0.72984201    -0.10200
C1154       C  0.57368923  0.80377699  0.71736532     0.21300
C1155       C  0.58802743  0.80053428  0.69911617    -0.12300
C1156       C  0.59498065  0.77907084  0.69338620    -0.10500
C1157       C  0.56749667  0.82602992  0.72395143     0.02300
C1158       C  0.56437879  0.84490873  0.73010601    -0.30600
C1159       C  0.59484769  0.73851845  0.70005530     0.03600
C1160       C  0.60040165  0.71986064  0.69508799    -0.32200
H1161       H  0.56756849  0.74988432  0.73393609     0.14700
H1162       H  0.55546465  0.78764487  0.74409818     0.14500
H1163       H  0.59398200  0.81460179  0.68944418     0.14400
H1164       H  0.60608916  0.77683390  0.67928044     0.13400
C1165       C  0.44007238  0.86073904  0.70266355     0.19700
C1166       C  0.45822286  0.85561562  0.68882115    -0.09400
C1167       C  0.48006395  0.85998613  0.69598426    -0.10200
C1168       C  0.48388075  0.86949909  0.71702847     0.21300
C1169       C  0.46572432  0.87480017  0.73078579    -0.12300
C1170       C  0.44389241  0.87042929  0.72362707    -0.10500
C1171       C  0.50638041  0.87366876  0.72457443     0.02300
C1172       C  0.52516278  0.87722735  0.73101337    -0.30600
C1173       C  0.41757394  0.85570334  0.69560469     0.03600
C1174       C  0.39858913  0.85131898  0.69033014    -0.32200
H1175       H  0.45550113  0.84812143  0.67258501     0.14700
H1176       H  0.49395703  0.85584070  0.68518472     0.14500
H1177       H  0.46844770  0.88218754  0.74707225     0.14400
H1178       H  0.43001213  0.87446663  0.73448660     0.13400
C1179       C  0.53058626  0.96163709  0.76286567     0.19700
C1180       C  0.53574895  0.96795561  0.78481121    -0.09400
C1181       C  0.53506332  0.99034832  0.79109911    -0.10200
C1182       C  0.52919099  0.00664499  0.77550141     0.21300
C1183       C  0.52316040  0.00027023  0.75377110    -0.12300
C1184       C  0.52385784  0.97782007  0.74746300    -0.10500
C1185       C  0.53242523  0.02983558  0.78095731     0.02300
C1186       C  0.53889844  0.04848184  0.78498655    -0.30600
C1187       C  0.53486777  0.93910115  0.75576319     0.03600
C1188       C  0.54191736  0.92089121  0.75111777    -0.32200
H1189       H  0.54124544  0.95568514  0.79681015     0.14700
H1190       H  0.54008441  0.99504381  0.80783592     0.14500
H1191       H  0.51889400  0.01271775  0.74145252     0.14400
H1192       H  0.52007633  0.97322836  0.73037927     0.13400
loop_ 
_geom_bond_atom_site_label_1 
_geom_bond_atom_site_label_2 
_geom_bond_distance 
_geom_bond_site_symmetry_2 
_ccdc_geom_bond_type 
N1            C5   1.354       .  A
N1            C2   1.353       .  A
N1         C1172   1.407       .  S
C2            C3   1.381       .  A
C2         C1188   1.445       .  S
C3            C4   1.380       .  A
C3            H6   1.082       .  S
C4            C5   1.381       .  A
C4            H7   1.082       .  S
C5         C1158   1.446       .  S
N8           C12   1.353       .  A
N8            C9   1.352       .  A
N8         C1132   1.407       .  S
C9           C10   1.381       .  A
C9         C1186   1.444       .  S
C10          C11   1.379       .  A
C10          H13   1.082       .  S
C11          C12   1.381       .  A
C11          H14   1.082       .  S
C12        C1144   1.444       .  S
N15          C19   1.354       .  A
N15          C16   1.355       .  A
N15        C1104   1.409       .  S
C16          C17   1.381       .  A
C16        C1116   1.445       .  S
C17          C18   1.378       .  A
C17          H20   1.082       .  S
C18          C19   1.380       .  A
C18          H21   1.082       .  S
C19        C1088   1.444       .  S
N22          C26   1.354       .  A
N22          C23   1.353       .  A
N22        C1062   1.408       .  S
C23          C24   1.381       .  A
C23        C1118   1.445       .  S
C24          C25   1.379       .  A
C24          H27   1.082       .  S
C25          C26   1.381       .  A
C25          H28   1.082       .  S
C26        C1076   1.445       .  S
N29          C33   1.354       .  A
N29          C30   1.354       .  A
N29        C1020   1.408       .  S
C30          C31   1.381       .  A
C30        C1046   1.445       .  S
C31          C32   1.378       .  A
C31          H34   1.082       .  S
C32          C33   1.380       .  A
C32          H35   1.082       .  S
C33        C1032   1.445       .  S
N36          C40   1.355       .  A
N36          C37   1.354       .  A
N36        C1004   1.408       .  S
C37          C38   1.381       .  A
C37        C1048   1.447       .  S
C38          C39   1.379       .  A
C38          H41   1.082       .  S
C39          C40   1.381       .  A
C39          H42   1.082       .  S
C40         C990   1.447       .  S
N43          C47   1.353       .  A
N43          C44   1.353       .  A
N43         C962   1.405       .  S
C44          C45   1.381       .  A
C44         C976   1.448       .  S
C45          C46   1.381       .  A
C45          H48   1.082       .  S
C46          C47   1.381       .  A
C46          H49   1.082       .  S
C47         C948   1.447       .  S
N50          C54   1.353       .  A
N50          C51   1.354       .  A
N50         C922   1.407       .  S
C51          C52   1.382       .  A
C51         C978   1.448       .  S
C52          C53   1.380       .  A
C52          H55   1.082       .  S
C53          C54   1.380       .  A
C53          H56   1.082       .  S
C54         C936   1.445       .  S
O57          C73   1.273       .  A
O57         Zn63   2.025       .  S
C58         C964   1.435       .  S
C58          O74   1.273       .  A
C58          O71   1.272       .  A
O59          C72   1.276       .  A
O59         Cd66   2.088       .  S
O60          C78   1.273       .  A
O60         Cd69   2.067       .  S
O61          C75   1.273       .  A
O61         Cd65   2.072       .  S
O62          C73   1.273       .  A
O62         Cd65   2.072       .  S
Zn63         O74   2.021       .  S
Zn63         O76   2.014       .  S
Zn63         O68   1.953       .  S
O64          C75   1.274       .  A
O64         Cd69   2.074       .  S
Cd65         O67   2.069       .  S
Cd65         O68   2.004       .  S
Cd66         O70   2.091       .  S
Cd66         O79   2.093       .  S
Cd66         O68   2.014       .  S
O67          C77   1.273       .  A
O68         Cd69   2.003       .  S
Cd69         O71   2.067       .  S
O70          C77   1.276       .  A
C72         C892   1.439       .  S
C72          O76   1.272       .  A
C73         C878   1.438       .  S
C75         C866   1.436       .  S
C77        C1146   1.440       .  S
C78         C908   1.441       .  S
C78          O79   1.277       .  A
O80          C96   1.274       .  A
O80         Zn86   2.031       .  S
C81        C1006   1.439       .  S
C81          O97   1.274       .  A
C81          O94   1.274       .  A
O82          C95   1.275       .  A
O82         Cd89   2.087       .  S
O83         C101   1.273       .  A
O83         Cd92   2.069       .  S
O84          C98   1.274       .  A
O84         Cd88   2.076       .  S
O85          C96   1.273       .  A
O85         Cd88   2.071       .  S
Zn86         O97   2.028       .  S
Zn86         O99   2.024       .  S
Zn86         O91   1.955       .  S
O87          C98   1.274       .  A
O87         Cd92   2.079       .  S
Cd88         O90   2.073       .  S
Cd88         O91   2.006       .  S
Cd89         O93   2.091       .  S
Cd89        O102   2.091       .  S
Cd89         O91   2.016       .  S
O90         C100   1.274       .  A
O91         Cd92   2.008       .  S
Cd92         O94   2.076       .  S
O93         C100   1.276       .  A
C95        C1074   1.441       .  S
C95          O99   1.273       .  A
C96         C822   1.439       .  S
C98        C1174   1.439       .  S
C100        C850   1.442       .  S
C101        C836   1.440       .  S
C101        O102   1.277       .  A
N103        C107   1.354       .  A
N103        C104   1.352       .  A
N103        C794   1.407       .  S
C104        C105   1.381       .  A
C104        C808   1.444       .  S
C105        C106   1.379       .  A
C105        H108   1.082       .  S
C106        C107   1.381       .  A
C106        H109   1.082       .  S
C107        C782   1.446       .  S
N110        C114   1.353       .  A
N110        C111   1.352       .  A
N110        C768   1.407       .  S
C111        C112   1.381       .  A
C111        C810   1.444       .  S
C112        C113   1.380       .  A
C112        H115   1.082       .  S
C113        C114   1.381       .  A
C113        H116   1.082       .  S
C114        C752   1.444       .  S
O117        C133   1.274       .  A
O117       Zn123   2.031       .  S
C118        C724   1.436       .  S
C118        O134   1.273       .  A
C118        O131   1.273       .  A
O119        C132   1.276       .  A
O119       Cd126   2.088       .  S
O120        C138   1.273       .  A
O120       Cd129   2.068       .  S
O121        C135   1.275       .  A
O121       Cd125   2.082       .  S
O122        C133   1.273       .  A
O122       Cd125   2.074       .  S
Zn123       O134   2.024       .  S
Zn123       O136   2.016       .  S
Zn123       O128   1.955       .  S
O124        C135   1.274       .  A
O124       Cd129   2.078       .  S
Cd125       O127   2.065       .  S
Cd125       O128   2.005       .  S
Cd126       O130   2.094       .  S
Cd126       O139   2.093       .  S
Cd126       O128   2.016       .  S
O127        C137   1.272       .  A
O128       Cd129   2.006       .  S
Cd129       O131   2.072       .  S
O130        C137   1.277       .  A
C132        C934   1.440       .  S
C132        O136   1.272       .  A
C133        C796   1.440       .  S
C135       C1102   1.441       .  S
C137        C738   1.440       .  S
C138       C1034   1.441       .  S
C138        O139   1.277       .  A
N140        C144   1.355       .  A
N140        C141   1.354       .  A
N140        C698   1.408       .  S
C141        C142   1.381       .  A
C141        C710   1.447       .  S
C142        C143   1.379       .  A
C142        H145   1.082       .  S
C143        C144   1.381       .  A
C143        H146   1.082       .  S
C144        C906   1.446       .  S
N147        C151   1.354       .  A
N147        C148   1.353       .  A
N147        C670   1.407       .  S
C148        C149   1.381       .  A
C148        C712   1.446       .  S
C149        C150   1.379       .  A
C149        H152   1.082       .  S
C150        C151   1.381       .  A
C150        H153   1.082       .  S
C151        C684   1.446       .  S
O154        C170   1.275       .  A
O154       Zn160   2.033       .  S
C155        C642   1.444       .  S
C155        O171   1.275       .  A
C155        O168   1.274       .  A
O156        C169   1.274       .  A
O156       Cd163   2.079       .  S
O157        C175   1.273       .  A
O157       Cd166   2.071       .  S
O158        C172   1.276       .  A
O158       Cd162   2.089       .  S
O159        C170   1.274       .  A
O159       Cd162   2.076       .  S
Zn160       O171   2.042       .  S
Zn160       O173   2.024       .  S
Zn160       O165   1.957       .  S
O161        C172   1.275       .  A
O161       Cd166   2.080       .  S
Cd162       O164   2.074       .  S
Cd162       O165   2.008       .  S
Cd163       O167   2.088       .  S
Cd163       O176   2.083       .  S
Cd163       O165   2.016       .  S
O164        C174   1.273       .  A
O165       Cd166   2.007       .  S
Cd166       O168   2.079       .  S
O167        C174   1.275       .  A
C169        C766   1.439       .  S
C169        O173   1.273       .  A
C170        C654   1.440       .  S
C172        C626   1.444       .  S
C174        C920   1.440       .  S
C175        C696   1.439       .  S
C175        O176   1.275       .  A
N177        C181   1.352       .  A
N177        C178   1.351       .  A
N177        C598   1.407       .  S
C178        C179   1.381       .  A
C178        C612   1.443       .  S
C179        C180   1.379       .  A
C179        H182   1.082       .  S
C180        C181   1.381       .  A
C180        H183   1.082       .  S
C181        C584   1.442       .  S
N184        C188   1.354       .  A
N184        C185   1.352       .  A
N184        C864   1.406       .  S
C185        C186   1.381       .  A
C185        C614   1.445       .  S
C186        C187   1.380       .  A
C186        H189   1.082       .  S
C187        C188   1.381       .  A
C187        H190   1.082       .  S
C188        C628   1.447       .  S
N191        C195   1.353       .  A
N191        C192   1.353       .  A
N191        C558   1.407       .  S
C192        C193   1.381       .  A
C192        C570   1.445       .  S
C193        C194   1.380       .  A
C193        H196   1.082       .  S
C194        C195   1.381       .  A
C194        H197   1.082       .  S
C195        C852   1.446       .  S
N198        C202   1.352       .  A
N198        C199   1.352       .  A
N198        C542   1.406       .  S
C199        C200   1.381       .  A
C199        C572   1.444       .  S
C200        C201   1.379       .  A
C200        H203   1.082       .  S
C201        C202   1.380       .  A
C201        H204   1.082       .  S
C202        C530   1.444       .  S
O205        C221   1.274       .  A
O205       Zn211   2.029       .  S
C206        C556   1.440       .  S
C206        O222   1.274       .  A
C206        O219   1.274       .  A
O207        C220   1.277       .  A
O207       Cd214   2.098       .  S
O208        C226   1.273       .  A
O208       Cd217   2.071       .  S
O209        C223   1.273       .  A
O209       Cd213   2.076       .  S
O210        C221   1.273       .  A
O210       Cd213   2.073       .  S
Zn211       O222   2.029       .  S
Zn211       O224   2.018       .  S
Zn211       O216   1.957       .  S
O212        C223   1.274       .  A
O212       Cd217   2.079       .  S
Cd213       O215   2.067       .  S
Cd213       O216   2.007       .  S
Cd214       O218   2.096       .  S
Cd214       O227   2.100       .  S
Cd214       O216   2.020       .  S
O215        C225   1.273       .  A
O216       Cd217   2.006       .  S
Cd217       O219   2.076       .  S
O218        C225   1.277       .  A
C220        C514   1.442       .  S
C220        O224   1.273       .  A
C221       C1130   1.439       .  S
C223        C600   1.439       .  S
C225        C502   1.441       .  S
C226        C682   1.443       .  S
C226        O227   1.278       .  A
N228        C232   1.354       .  A
N228        C229   1.352       .  A
N228        C458   1.408       .  S
C229        C230   1.381       .  A
C229        C488   1.443       .  S
C230        C231   1.378       .  A
C230        H233   1.082       .  S
C231        C232   1.381       .  A
C231        H234   1.082       .  S
C232        C472   1.444       .  S
N235        C239   1.353       .  A
N235        C236   1.352       .  A
N235        C824   1.407       .  S
C236        C237   1.381       .  A
C236        C486   1.443       .  S
C237        C238   1.379       .  A
C237        H240   1.082       .  S
C238        C239   1.381       .  A
C238        H241   1.082       .  S
C239        C516   1.444       .  S
O242        C258   1.275       .  A
O242       Zn248   2.035       .  S
C243        C754   1.441       .  S
C243        O259   1.274       .  A
C243        O256   1.275       .  A
O244        C257   1.274       .  A
O244       Cd251   2.076       .  S
O245        C263   1.273       .  A
O245       Cd254   2.072       .  S
O246        C260   1.275       .  A
O246       Cd250   2.080       .  S
O247        C258   1.274       .  A
O247       Cd250   2.076       .  S
Zn248       O259   2.028       .  S
Zn248       O261   2.026       .  S
Zn248       O253   1.955       .  S
O249        C260   1.274       .  A
O249       Cd254   2.077       .  S
Cd250       O252   2.074       .  S
Cd250       O253   2.007       .  S
Cd251       O255   2.079       .  S
Cd251       O264   2.078       .  S
Cd251       O253   2.011       .  S
O252        C262   1.274       .  A
O253       Cd254   2.007       .  S
Cd254       O256   2.082       .  S
O255        C262   1.274       .  A
C257        C444   1.439       .  S
C257        O261   1.274       .  A
C258        C474   1.441       .  S
C260        C586   1.439       .  S
C262        C544   1.438       .  S
C263        C668   1.437       .  S
C263        O264   1.274       .  A
N265        C269   1.354       .  A
N265        C266   1.354       .  A
N265        C416   1.409       .  S
C266        C267   1.381       .  A
C266        C432   1.446       .  S
C267        C268   1.379       .  A
C267        H270   1.082       .  S
C268        C269   1.381       .  A
C268        H271   1.082       .  S
C269        C740   1.445       .  S
N272        C276   1.354       .  A
N272        C273   1.354       .  A
N272        C446   1.408       .  S
C273        C274   1.381       .  A
C273        C430   1.446       .  S
C274        C275   1.379       .  A
C274        H277   1.082       .  S
C275        C276   1.380       .  A
C275        H278   1.082       .  S
C276        C640   1.446       .  S
O279        C295   1.275       .  A
O279       Zn285   2.038       .  S
C280        C460   1.442       .  S
C280        O296   1.274       .  A
C280        O293   1.274       .  A
O281        C294   1.276       .  A
O281       Cd288   2.092       .  S
O282        C300   1.274       .  A
O282       Cd291   2.074       .  S
O283        C297   1.274       .  A
O283       Cd287   2.080       .  S
O284        C295   1.274       .  A
O284       Cd287   2.077       .  S
Zn285       O296   2.032       .  S
Zn285       O298   2.020       .  S
Zn285       O290   1.958       .  S
O286        C297   1.274       .  A
O286       Cd291   2.076       .  S
Cd287       O289   2.076       .  S
Cd287       O290   2.008       .  S
Cd288       O292   2.097       .  S
Cd288       O301   2.095       .  S
Cd288       O290   2.019       .  S
O289        C299   1.274       .  A
O290       Cd291   2.008       .  S
Cd291       O293   2.080       .  S
O292        C299   1.277       .  A
C294        C528   1.441       .  S
C294        O298   1.273       .  A
C295        C418   1.442       .  S
C297       C1060   1.439       .  S
C299        C780   1.444       .  S
C300        C992   1.444       .  S
C300        O301   1.277       .  A
N302        C306   1.354       .  A
N302        C303   1.354       .  A
N302        C880   1.407       .  S
C303        C304   1.381       .  A
C303        C402   1.447       .  S
C304        C305   1.379       .  A
C304        H307   1.082       .  S
C305        C306   1.380       .  A
C305        H308   1.082       .  S
C306        C500   1.446       .  S
N309        C313   1.355       .  A
N309        C310   1.354       .  A
N309        C390   1.410       .  S
C310        C311   1.381       .  A
C310        C404   1.446       .  S
C311        C312   1.378       .  A
C311        H314   1.082       .  S
C312        C313   1.381       .  A
C312        H315   1.082       .  S
C313        C838   1.445       .  S
N316        C320   1.351       .  A
N316        C317   1.350       .  A
N316        C726   1.405       .  S
C317        C318   1.381       .  A
C317        C374   1.443       .  S
C318        C319   1.381       .  A
C318        H321   1.082       .  S
C319        C320   1.381       .  A
C319        H322   1.082       .  S
C320        C656   1.443       .  S
N323        C327   1.353       .  A
N323        C324   1.351       .  A
N323        C362   1.407       .  S
C324        C325   1.381       .  A
C324        C376   1.442       .  S
C325        C326   1.379       .  A
C325        H328   1.082       .  S
C326        C327   1.381       .  A
C326        H329   1.082       .  S
C327        C894   1.442       .  S
O330        C346   1.275       .  A
O330       Zn336   2.032       .  S
C331        C388   1.444       .  S
C331        O347   1.275       .  A
C331        O344   1.274       .  A
O332        C345   1.275       .  A
O332       Cd339   2.085       .  S
O333        C351   1.273       .  A
O333       Cd342   2.069       .  S
O334        C348   1.275       .  A
O334       Cd338   2.082       .  S
O335        C346   1.274       .  A
O335       Cd338   2.075       .  S
Zn336       O347   2.041       .  S
Zn336       O349   2.028       .  S
Zn336       O341   1.958       .  S
O337        C348   1.274       .  A
O337       Cd342   2.078       .  S
Cd338       O340   2.075       .  S
Cd338       O341   2.010       .  S
Cd339       O343   2.091       .  S
Cd339       O352   2.094       .  S
Cd339       O341   2.018       .  S
O340        C350   1.274       .  A
O341       Cd342   2.007       .  S
Cd342       O344   2.081       .  S
O343        C350   1.276       .  A
C345       C1160   1.441       .  S
C345        O349   1.274       .  A
C346       C1018   1.440       .  S
C348        C360   1.440       .  S
C350       C1090   1.442       .  S
C351        C950   1.441       .  S
C351        O352   1.277       .  A
C353        C354   1.402       .  A
C353        C358   1.402       .  A
C353        C361   1.444       .  S
C354        C355   1.401       .  A
C354        H363   1.083       .  S
C355        C356   1.402       .  A
C355        H364   1.083       .  S
C356        C357   1.402       .  A
C356        C359   1.445       .  S
C357        C358   1.401       .  A
C357        H365   1.083       .  S
C358        H366   1.083       .  S
C359        C360   1.209       .  T
C361        C362   1.208       .  T
C367        C368   1.402       .  A
C367        C372   1.402       .  A
C367        C375   1.442       .  S
C368        C369   1.401       .  A
C368        H377   1.083       .  S
C369        C370   1.402       .  A
C369        H378   1.083       .  S
C370        C371   1.401       .  A
C370        C373   1.442       .  S
C371        C372   1.399       .  A
C371        H379   1.083       .  S
C372        H380   1.083       .  S
C373        C374   1.207       .  T
C375        C376   1.207       .  T
C381        C382   1.402       .  A
C381        C386   1.403       .  A
C381        C389   1.447       .  S
C382        C383   1.402       .  A
C382        H391   1.083       .  S
C383        C384   1.403       .  A
C383        H392   1.083       .  S
C384        C385   1.403       .  A
C384        C387   1.449       .  S
C385        C386   1.403       .  A
C385        H393   1.083       .  S
C386        H394   1.083       .  S
C387        C388   1.211       .  T
C389        C390   1.210       .  T
C395        C396   1.403       .  A
C395        C400   1.402       .  A
C395        C403   1.447       .  S
C396        C397   1.402       .  A
C396        H405   1.083       .  S
C397        C398   1.402       .  A
C397        H406   1.083       .  S
C398        C399   1.403       .  A
C398        C401   1.447       .  S
C399        C400   1.402       .  A
C399        H407   1.083       .  S
C400        H408   1.083       .  S
C401        C402   1.210       .  T
C403        C404   1.210       .  T
C409        C410   1.403       .  A
C409        C414   1.403       .  A
C409        C417   1.447   1_655  S
C410        C411   1.402       .  A
C410        H419   1.083   1_655  S
C411        C412   1.402       .  A
C411        H420   1.083       .  S
C412        C413   1.402       .  A
C412        C415   1.446       .  S
C413        C414   1.401       .  A
C413        H421   1.083       .  S
C414        H422   1.083       .  S
C415        C416   1.209       .  T
C417        C418   1.210       .  T
C423        C424   1.402       .  A
C423        C428   1.403       .  A
C423        C431   1.447       .  S
C424        C425   1.403   1_565  A
C424        H433   1.083       .  S
C425        C426   1.403       .  A
C425        H434   1.083       .  S
C426        C427   1.402   1_545  A
C426        C429   1.447       .  S
C427        C428   1.401       .  A
C427        H435   1.083       .  S
C428        H436   1.083       .  S
C429        C430   1.210       .  T
C431        C432   1.210       .  T
C437        C438   1.402       .  A
C437        C442   1.402       .  A
C437        C445   1.444       .  S
C438        C439   1.401       .  A
C438        H447   1.083       .  S
C439        C440   1.402       .  A
C439        H448   1.083       .  S
C440        C441   1.402       .  A
C440        C443   1.444   1_655  S
C441        C442   1.401       .  A
C441        H449   1.083   1_655  S
C442        H450   1.083       .  S
C443        C444   1.208       .  T
C445        C446   1.208       .  T
C451        C452   1.403       .  A
C451        C456   1.403       .  A
C451        C459   1.446       .  S
C452        C453   1.401       .  A
C452        H461   1.083       .  S
C453        C454   1.402       .  A
C453        H462   1.083   1_565  S
C454        C455   1.402       .  A
C454        C457   1.445   1_565  S
C455        C456   1.401       .  A
C455        H463   1.083       .  S
C456        H464   1.083       .  S
C457        C458   1.209       .  T
C459        C460   1.210       .  T
C465        C466   1.402       .  A
C465        C470   1.403       .  A
C465        C473   1.446       .  S
C466        C467   1.402       .  A
C466        H475   1.083       .  S
C467        C468   1.403       .  A
C467        H476   1.083       .  S
C468        C469   1.401       .  A
C468        C471   1.445       .  S
C469        C470   1.401       .  A
C469        H477   1.083       .  S
C470        H478   1.083       .  S
C471        C472   1.209       .  T
C473        C474   1.209       .  T
C479        C480   1.401       .  A
C479        C484   1.403       .  A
C479        C487   1.442       .  S
C480        C481   1.400       .  A
C480        H489   1.083       .  S
C481        C482   1.402       .  A
C481        H490   1.083       .  S
C482        C483   1.402       .  A
C482        C485   1.443       .  S
C483        C484   1.401       .  A
C483        H491   1.083       .  S
C484        H492   1.083       .  S
C485        C486   1.208       .  T
C487        C488   1.207       .  T
C493        C494   1.402       .  A
C493        C498   1.403       .  A
C493        C501   1.446       .  S
C494        C495   1.401       .  A
C494        H503   1.083       .  S
C495        C496   1.402       .  A
C495        H504   1.083       .  S
C496        C497   1.403       .  A
C496        C499   1.446       .  S
C497        C498   1.402       .  A
C497        H505   1.083       .  S
C498        H506   1.083       .  S
C499        C500   1.209       .  T
C501        C502   1.210       .  T
C507        C508   1.402       .  A
C507        C512   1.402       .  A
C507        C515   1.444       .  S
C508        C509   1.402       .  A
C508        H517   1.083       .  S
C509        C510   1.403       .  A
C509        H518   1.083       .  S
C510        C511   1.402       .  A
C510        C513   1.447       .  S
C511        C512   1.401       .  A
C511        H519   1.083       .  S
C512        H520   1.083       .  S
C513        C514   1.210       .  T
C515        C516   1.208       .  T
C521        C522   1.402       .  A
C521        C526   1.402       .  A
C521        C529   1.444       .  S
C522        C523   1.399       .  A
C522        H531   1.083       .  S
C523        C524   1.401       .  A
C523        H532   1.083       .  S
C524        C525   1.404       .  A
C524        C527   1.445       .  S
C525        C526   1.403       .  A
C525        H533   1.083       .  S
C526        H534   1.083       .  S
C527        C528   1.209       .  T
C529        C530   1.208       .  T
C535        C536   1.402   1_545  A
C535        C540   1.402       .  A
C535        C543   1.442       .  S
C536        C537   1.400       .  A
C536        H545   1.083   1_565  S
C537        C538   1.402       .  A
C537        H546   1.083       .  S
C538        C539   1.401       .  A
C538        C541   1.441       .  S
C539        C540   1.400   1_565  A
C539        H547   1.083       .  S
C540        H548   1.083       .  S
C541        C542   1.207       .  T
C543        C544   1.207       .  T
C549        C550   1.402       .  A
C549        C554   1.402       .  A
C549        C557   1.443       .  S
C550        C551   1.400   1_565  A
C550        H559   1.083       .  S
C551        C552   1.402       .  A
C551        H560   1.083       .  S
C552        C553   1.402       .  A
C552        C555   1.444       .  S
C553        C554   1.401   1_545  A
C553        H561   1.083       .  S
C554        H562   1.083       .  S
C555        C556   1.209       .  T
C557        C558   1.208       .  T
C563        C564   1.402       .  A
C563        C568   1.402       .  A
C563        C571   1.444       .  S
C564        C565   1.401   1_554  A
C564        H573   1.083       .  S
C565        C566   1.403       .  A
C565        H574   1.083       .  S
C566        C567   1.402   1_556  A
C566        C569   1.445       .  S
C567        C568   1.401       .  A
C567        H575   1.083       .  S
C568        H576   1.083       .  S
C569        C570   1.209       .  T
C571        C572   1.208       .  T
C577        C578   1.402       .  A
C577        C582   1.402       .  A
C577        C585   1.443       .  S
C578        C579   1.401       .  A
C578        H587   1.083       .  S
C579        C580   1.402       .  A
C579        H588   1.083       .  S
C580        C581   1.401       .  A
C580        C583   1.442       .  S
C581        C582   1.399       .  A
C581        H589   1.083       .  S
C582        H590   1.083       .  S
C583        C584   1.207       .  T
C585        C586   1.208       .  T
C591        C592   1.402       .  A
C591        C596   1.402   1_556  A
C591        C599   1.444       .  S
C592        C593   1.400   1_556  A
C592        H601   1.083       .  S
C593        C594   1.402       .  A
C593        H602   1.083       .  S
C594        C595   1.402       .  A
C594        C597   1.442       .  S
C595        C596   1.400       .  A
C595        H603   1.083       .  S
C596        H604   1.083   1_554  S
C597        C598   1.207       .  T
C599        C600   1.208       .  T
C605        C606   1.402       .  A
C605        C610   1.402       .  A
C605        C613   1.444       .  S
C606        C607   1.399       .  A
C606        H615   1.083       .  S
C607        C608   1.401       .  A
C607        H616   1.084       .  S
C608        C609   1.403       .  A
C608        C611   1.443       .  S
C609        C610   1.402       .  A
C609        H617   1.083       .  S
C610        H618   1.083       .  S
C611        C612   1.207       .  T
C613        C614   1.208       .  T
C619        C620   1.403       .  A
C619        C624   1.403       .  A
C619        C627   1.448       .  S
C620        C621   1.403       .  A
C620        H629   1.083       .  S
C621        C622   1.404       .  A
C621        H630   1.083       .  S
C622        C623   1.402       .  A
C622        C625   1.449       .  S
C623        C624   1.402       .  A
C623        H631   1.083       .  S
C624        H632   1.083       .  S
C625        C626   1.211       .  T
C627        C628   1.211       .  T
C633        C634   1.404       .  A
C633        C638   1.402       .  A
C633        C641   1.448       .  S
C634        C635   1.403       .  A
C634        H643   1.083       .  S
C635        C636   1.402       .  A
C635        H644   1.083       .  S
C636        C637   1.403       .  A
C636        C639   1.447       .  S
C637        C638   1.401       .  A
C637        H645   1.083       .  S
C638        H646   1.083       .  S
C639        C640   1.210       .  T
C641        C642   1.211       .  T
C647        C648   1.401       .  A
C647        C652   1.402       .  A
C647        C655   1.443       .  S
C648        C649   1.399       .  A
C648        H657   1.083       .  S
C649        C650   1.401       .  A
C649        H658   1.083       .  S
C650        C651   1.403       .  A
C650        C653   1.444       .  S
C651        C652   1.402       .  A
C651        H659   1.083       .  S
C652        H660   1.083       .  S
C653        C654   1.209       .  T
C655        C656   1.208       .  T
C661        C662   1.402       .  A
C661        C666   1.402       .  A
C661        C669   1.442   1_554  S
C662        C663   1.400       .  A
C662        H671   1.083       .  S
C663        C664   1.402       .  A
C663        H672   1.083       .  S
C664        C665   1.401       .  A
C664        C667   1.442       .  S
C665        C666   1.400       .  A
C665        H673   1.083       .  S
C666        H674   1.083       .  S
C667        C668   1.207       .  T
C669        C670   1.208       .  T
C675        C676   1.402       .  A
C675        C680   1.402       .  A
C675        C683   1.446       .  S
C676        C677   1.402       .  A
C676        H685   1.083       .  S
C677        C678   1.402       .  A
C677        H686   1.083       .  S
C678        C679   1.403       .  A
C678        C681   1.448       .  S
C679        C680   1.402       .  A
C679        H687   1.083       .  S
C680        H688   1.083       .  S
C681        C682   1.211       .  T
C683        C684   1.209       .  T
C689        C690   1.402       .  A
C689        C694   1.402       .  A
C689        C697   1.444   1_554  S
C690        C691   1.401       .  A
C690        H699   1.083       .  S
C691        C692   1.402       .  A
C691        H700   1.083       .  S
C692        C693   1.402       .  A
C692        C695   1.444       .  S
C693        C694   1.401       .  A
C693        H701   1.083       .  S
C694        H702   1.083   1_554  S
C695        C696   1.208       .  T
C697        C698   1.209       .  T
C703        C704   1.404       .  A
C703        C708   1.402       .  A
C703        C711   1.447   1_655  S
C704        C705   1.404       .  A
C704        H713   1.083       .  S
C705        C706   1.403       .  A
C705        H714   1.083       .  S
C706        C707   1.402       .  A
C706        C709   1.447       .  S
C707        C708   1.400       .  A
C707        H715   1.083       .  S
C708        H716   1.083       .  S
C709        C710   1.210       .  T
C711        C712   1.210       .  T
C717        C718   1.401       .  A
C717        C722   1.401       .  A
C717        C725   1.440       .  S
C718        C719   1.399       .  A
C718        H727   1.083       .  S
C719        C720   1.402       .  A
C719        H728   1.083       .  S
C720        C721   1.401       .  A
C720        C723   1.441       .  S
C721        C722   1.399       .  A
C721        H729   1.083       .  S
C722        H730   1.083       .  S
C723        C724   1.207       .  T
C725        C726   1.206       .  T
C731        C732   1.402       .  A
C731        C736   1.402       .  A
C731        C739   1.445       .  S
C732        C733   1.401       .  A
C732        H741   1.083       .  S
C733        C734   1.402       .  A
C733        H742   1.083       .  S
C734        C735   1.402       .  A
C734        C737   1.445       .  S
C735        C736   1.401       .  A
C735        H743   1.083       .  S
C736        H744   1.083       .  S
C737        C738   1.209       .  T
C739        C740   1.209       .  T
C745        C746   1.402       .  A
C745        C750   1.403       .  A
C745        C753   1.446       .  S
C746        C747   1.401       .  A
C746        H755   1.083       .  S
C747        C748   1.403       .  A
C747        H756   1.083       .  S
C748        C749   1.402       .  A
C748        C751   1.445       .  S
C749        C750   1.402       .  A
C749        H757   1.083       .  S
C750        H758   1.083       .  S
C751        C752   1.209       .  T
C753        C754   1.209       .  T
C759        C760   1.402       .  A
C759        C764   1.402       .  A
C759        C767   1.442   1_655  S
C760        C761   1.400       .  A
C760        H769   1.084       .  S
C761        C762   1.402       .  A
C761        H770   1.083       .  S
C762        C763   1.402       .  A
C762        C765   1.443       .  S
C763        C764   1.401       .  A
C763        H771   1.083       .  S
C764        H772   1.083       .  S
C765        C766   1.208       .  T
C767        C768   1.207       .  T
C773        C774   1.402       .  A
C773        C778   1.403       .  A
C773        C781   1.447       .  S
C774        C775   1.403       .  A
C774        H783   1.083       .  S
C775        C776   1.404       .  A
C775        H784   1.083       .  S
C776        C777   1.402       .  A
C776        C779   1.448       .  S
C777        C778   1.401       .  A
C777        H785   1.083       .  S
C778        H786   1.083       .  S
C779        C780   1.211       .  T
C781        C782   1.210       .  T
C787        C788   1.402       .  A
C787        C792   1.402       .  A
C787        C795   1.444       .  S
C788        C789   1.401       .  A
C788        H797   1.083       .  S
C789        C790   1.402       .  A
C789        H798   1.083       .  S
C790        C791   1.401       .  A
C790        C793   1.443   1_655  S
C791        C792   1.400       .  A
C791        H799   1.083       .  S
C792        H800   1.083       .  S
C793        C794   1.208       .  T
C795        C796   1.209       .  T
C801        C802   1.402       .  A
C801        C806   1.402       .  A
C801        C809   1.443       .  S
C802        C803   1.400       .  A
C802        H811   1.083       .  S
C803        C804   1.401       .  A
C803        H812   1.083       .  S
C804        C805   1.403       .  A
C804        C807   1.443       .  S
C805        C806   1.401       .  A
C805        H813   1.083       .  S
C806        H814   1.083       .  S
C807        C808   1.208       .  T
C809        C810   1.208       .  T
C815        C816   1.402       .  A
C815        C820   1.402       .  A
C815        C823   1.443   1_565  S
C816        C817   1.400       .  A
C816        H825   1.083   1_565  S
C817        C818   1.402       .  A
C817        H826   1.083       .  S
C818        C819   1.402       .  A
C818        C821   1.444       .  S
C819        C820   1.401       .  A
C819        H827   1.083       .  S
C820        H828   1.083       .  S
C821        C822   1.208       .  T
C823        C824   1.208       .  T
C829        C830   1.403       .  A
C829        C834   1.402       .  A
C829        C837   1.446       .  S
C830        C831   1.402       .  A
C830        H839   1.083       .  S
C831        C832   1.402       .  A
C831        H840   1.083       .  S
C832        C833   1.402       .  A
C832        C835   1.445       .  S
C833        C834   1.401       .  A
C833        H841   1.083       .  S
C834        H842   1.083       .  S
C835        C836   1.209       .  T
C837        C838   1.209       .  T
C843        C844   1.402       .  A
C843        C848   1.403       .  A
C843        C851   1.446       .  S
C844        C845   1.400       .  A
C844        H853   1.083       .  S
C845        C846   1.401       .  A
C845        H854   1.083       .  S
C846        C847   1.404       .  A
C846        C849   1.447       .  S
C847        C848   1.403       .  A
C847        H855   1.083       .  S
C848        H856   1.083       .  S
C849        C850   1.210       .  T
C851        C852   1.209       .  T
C857        C858   1.402       .  A
C857        C862   1.401   1_556  A
C857        C865   1.441       .  S
C858        C859   1.401   1_556  A
C858        H867   1.083       .  S
C859        C860   1.402       .  A
C859        H868   1.083       .  S
C860        C861   1.401       .  A
C860        C863   1.441       .  S
C861        C862   1.398       .  A
C861        H869   1.083       .  S
C862        H870   1.083   1_554  S
C863        C864   1.207       .  T
C865        C866   1.206       .  T
C871        C872   1.402       .  A
C871        C876   1.402       .  A
C871        C879   1.443       .  S
C872        C873   1.401       .  A
C872        H881   1.083       .  S
C873        C874   1.402       .  A
C873        H882   1.083       .  S
C874        C875   1.402       .  A
C874        C877   1.442       .  S
C875        C876   1.400       .  A
C875        H883   1.083       .  S
C876        H884   1.083       .  S
C877        C878   1.207       .  T
C879        C880   1.208       .  T
C885        C886   1.402       .  A
C885        C890   1.402       .  A
C885        C893   1.443       .  S
C886        C887   1.399       .  A
C886        H895   1.083       .  S
C887        C888   1.400       .  A
C887        H896   1.083       .  S
C888        C889   1.404       .  A
C888        C891   1.443       .  S
C889        C890   1.402       .  A
C889        H897   1.083       .  S
C890        H898   1.083       .  S
C891        C892   1.208       .  T
C893        C894   1.208       .  T
C899        C900   1.402       .  A
C899        C904   1.402       .  A
C899        C907   1.446       .  S
C900        C901   1.402       .  A
C900        H909   1.083       .  S
C901        C902   1.403       .  A
C901        H910   1.083       .  S
C902        C903   1.403       .  A
C902        C905   1.447       .  S
C903        C904   1.402       .  A
C903        H911   1.083       .  S
C904        H912   1.083       .  S
C905        C906   1.210       .  T
C907        C908   1.209       .  T
C913        C914   1.403       .  A
C913        C918   1.401       .  A
C913        C921   1.443       .  S
C914        C915   1.402       .  A
C914        H923   1.083       .  S
C915        C916   1.403       .  A
C915        H924   1.083       .  S
C916        C917   1.402       .  A
C916        C919   1.444       .  S
C917        C918   1.400       .  A
C917        H925   1.083       .  S
C918        H926   1.083       .  S
C919        C920   1.209       .  T
C921        C922   1.208       .  T
C927        C928   1.403       .  A
C927        C932   1.402       .  A
C927        C935   1.445       .  S
C928        C929   1.400       .  A
C928        H937   1.083       .  S
C929        C930   1.401       .  A
C929        H938   1.083       .  S
C930        C931   1.403       .  A
C930        C933   1.444       .  S
C931        C932   1.402       .  A
C931        H939   1.083       .  S
C932        H940   1.083       .  S
C933        C934   1.209       .  T
C935        C936   1.209       .  T
C941        C942   1.402       .  A
C941        C946   1.403       .  A
C941        C949   1.446       .  S
C942        C943   1.401       .  A
C942        H951   1.083       .  S
C943        C944   1.403       .  A
C943        H952   1.083       .  S
C944        C945   1.402       .  A
C944        C947   1.446       .  S
C945        C946   1.402       .  A
C945        H953   1.083       .  S
C946        H954   1.083       .  S
C947        C948   1.210       .  T
C949        C950   1.210       .  T
C955        C956   1.401       .  A
C955        C960   1.401       .  A
C955        C963   1.439       .  S
C956        C957   1.399       .  A
C956        H965   1.083       .  S
C957        C958   1.402       .  A
C957        H966   1.083       .  S
C958        C959   1.401       .  A
C958        C961   1.439       .  S
C959        C960   1.399       .  A
C959        H967   1.083       .  S
C960        H968   1.083       .  S
C961        C962   1.206       .  T
C963        C964   1.206       .  T
C969        C970   1.402       .  A
C969        C974   1.403       .  A
C969        C977   1.448       .  S
C970        C971   1.403   1_554  A
C970        H979   1.083       .  S
C971        C972   1.403       .  A
C971        H980   1.083       .  S
C972        C973   1.402   1_556  A
C972        C975   1.448       .  S
C973        C974   1.402       .  A
C973        H981   1.083       .  S
C974        H982   1.083       .  S
C975        C976   1.211       .  T
C977        C978   1.211       .  T
C983        C984   1.402       .  A
C983        C988   1.404       .  A
C983        C991   1.449       .  S
C984        C985   1.402       .  A
C984        H993   1.083       .  S
C985        C986   1.404       .  A
C985        H994   1.083       .  S
C986        C987   1.402       .  A
C986        C989   1.449       .  S
C987        C988   1.403       .  A
C987        H995   1.083       .  S
C988        H996   1.083       .  S
C989        C990   1.211       .  T
C991        C992   1.211       .  T
C997        C998   1.402       .  A
C997       C1002   1.402       .  A
C997       C1005   1.444       .  S
C998        C999   1.400       .  A
C998       H1007   1.083       .  S
C999       C1000   1.402       .  A
C999       H1008   1.083       .  S
C1000      C1001   1.402       .  A
C1000      C1003   1.444       .  S
C1001      C1002   1.401       .  A
C1001      H1009   1.083       .  S
C1002      H1010   1.083       .  S
C1003      C1004   1.208       .  T
C1005      C1006   1.208       .  T
C1011      C1012   1.402       .  A
C1011      C1016   1.402       .  A
C1011      C1019   1.444       .  S
C1012      C1013   1.400       .  A
C1012      H1021   1.083       .  S
C1013      C1014   1.402       .  A
C1013      H1022   1.083       .  S
C1014      C1015   1.402       .  A
C1014      C1017   1.445       .  S
C1015      C1016   1.401       .  A
C1015      H1023   1.083       .  S
C1016      H1024   1.083       .  S
C1017      C1018   1.209       .  T
C1019      C1020   1.209       .  T
C1025      C1026   1.401       .  A
C1025      C1030   1.404       .  A
C1025      C1033   1.445       .  S
C1026      C1027   1.400       .  A
C1026      H1035   1.083       .  S
C1027      C1028   1.403       .  A
C1027      H1036   1.083       .  S
C1028      C1029   1.402       .  A
C1028      C1031   1.445       .  S
C1029      C1030   1.402       .  A
C1029      H1037   1.083       .  S
C1030      H1038   1.083       .  S
C1031      C1032   1.209       .  T
C1033      C1034   1.209       .  T
C1039      C1040   1.402       .  A
C1039      C1044   1.403       .  A
C1039      C1047   1.447       .  S
C1040      C1041   1.400       .  A
C1040      H1049   1.083       .  S
C1041      C1042   1.401       .  A
C1041      H1050   1.083       .  S
C1042      C1043   1.404       .  A
C1042      C1045   1.446       .  S
C1043      C1044   1.403       .  A
C1043      H1051   1.083       .  S
C1044      H1052   1.083       .  S
C1045      C1046   1.209       .  T
C1047      C1048   1.210       .  T
C1053      C1054   1.401       .  A
C1053      C1058   1.403       .  A
C1053      C1061   1.444       .  S
C1054      C1055   1.400       .  A
C1054      H1063   1.083       .  S
C1055      C1056   1.402       .  A
C1055      H1064   1.083       .  S
C1056      C1057   1.402       .  A
C1056      C1059   1.444       .  S
C1057      C1058   1.402       .  A
C1057      H1065   1.083       .  S
C1058      H1066   1.083       .  S
C1059      C1060   1.208       .  T
C1061      C1062   1.208       .  T
C1067      C1068   1.403       .  A
C1067      C1072   1.402       .  A
C1067      C1075   1.446       .  S
C1068      C1069   1.402       .  A
C1068      H1077   1.083       .  S
C1069      C1070   1.402       .  A
C1069      H1078   1.083       .  S
C1070      C1071   1.403       .  A
C1070      C1073   1.446       .  S
C1071      C1072   1.401       .  A
C1071      H1079   1.083       .  S
C1072      H1080   1.083       .  S
C1073      C1074   1.210       .  T
C1075      C1076   1.209       .  T
C1081      C1082   1.402       .  A
C1081      C1086   1.402       .  A
C1081      C1089   1.446       .  S
C1082      C1083   1.401       .  A
C1082      H1091   1.083       .  S
C1083      C1084   1.402       .  A
C1083      H1092   1.083       .  S
C1084      C1085   1.403       .  A
C1084      C1087   1.445       .  S
C1085      C1086   1.402       .  A
C1085      H1093   1.083       .  S
C1086      H1094   1.083       .  S
C1087      C1088   1.209       .  T
C1089      C1090   1.210       .  T
C1095      C1096   1.402       .  A
C1095      C1100   1.403       .  A
C1095      C1103   1.446       .  S
C1096      C1097   1.401       .  A
C1096      H1105   1.083       .  S
C1097      C1098   1.402       .  A
C1097      H1106   1.083       .  S
C1098      C1099   1.403       .  A
C1098      C1101   1.446       .  S
C1099      C1100   1.402       .  A
C1099      H1107   1.083       .  S
C1100      H1108   1.083       .  S
C1101      C1102   1.210       .  T
C1103      C1104   1.210       .  T
C1109      C1110   1.403       .  A
C1109      C1114   1.402       .  A
C1109      C1117   1.445   1_655  S
C1110      C1111   1.401       .  A
C1110      H1119   1.083       .  S
C1111      C1112   1.402       .  A
C1111      H1120   1.083       .  S
C1112      C1113   1.403       .  A
C1112      C1115   1.447       .  S
C1113      C1114   1.402       .  A
C1113      H1121   1.083       .  S
C1114      H1122   1.083       .  S
C1115      C1116   1.210       .  T
C1117      C1118   1.209       .  T
C1123      C1124   1.401       .  A
C1123      C1128   1.402       .  A
C1123      C1131   1.443       .  S
C1124      C1125   1.400       .  A
C1124      H1133   1.083       .  S
C1125      C1126   1.402       .  A
C1125      H1134   1.083       .  S
C1126      C1127   1.402       .  A
C1126      C1129   1.443       .  S
C1127      C1128   1.401       .  A
C1127      H1135   1.083       .  S
C1128      H1136   1.083       .  S
C1129      C1130   1.208       .  T
C1131      C1132   1.208       .  T
C1137      C1138   1.401       .  A
C1137      C1142   1.403       .  A
C1137      C1145   1.445       .  S
C1138      C1139   1.400       .  A
C1138      H1147   1.083       .  S
C1139      C1140   1.403       .  A
C1139      H1148   1.083       .  S
C1140      C1141   1.402       .  A
C1140      C1143   1.444       .  S
C1141      C1142   1.402       .  A
C1141      H1149   1.083       .  S
C1142      H1150   1.083       .  S
C1143      C1144   1.208       .  T
C1145      C1146   1.209       .  T
C1151      C1152   1.402       .  A
C1151      C1156   1.402       .  A
C1151      C1159   1.446       .  S
C1152      C1153   1.401       .  A
C1152      H1161   1.083       .  S
C1153      C1154   1.402       .  A
C1153      H1162   1.083       .  S
C1154      C1155   1.403       .  A
C1154      C1157   1.446       .  S
C1155      C1156   1.402       .  A
C1155      H1163   1.083       .  S
C1156      H1164   1.083       .  S
C1157      C1158   1.209       .  T
C1159      C1160   1.210       .  T
C1165      C1166   1.402       .  A
C1165      C1170   1.402       .  A
C1165      C1173   1.443       .  S
C1166      C1167   1.400       .  A
C1166      H1175   1.083       .  S
C1167      C1168   1.402       .  A
C1167      H1176   1.083       .  S
C1168      C1169   1.402       .  A
C1168      C1171   1.442       .  S
C1169      C1170   1.400       .  A
C1169      H1177   1.083       .  S
C1170      H1178   1.083       .  S
C1171      C1172   1.207       .  T
C1173      C1174   1.208       .  T
C1179      C1180   1.402       .  A
C1179      C1184   1.403       .  A
C1179      C1187   1.445       .  S
C1180      C1181   1.399       .  A
C1180      H1189   1.083       .  S
C1181      C1182   1.401   1_565  A
C1181      H1190   1.083       .  S
C1182      C1183   1.403       .  A
C1182      C1185   1.444       .  S
C1183      C1184   1.403   1_545  A
C1183      H1191   1.083       .  S
C1184      H1192   1.083       .  S
C1185      C1186   1.208       .  T
C1187      C1188   1.209       .  T
