geometry optimzed in LAMMPS
_audit_creation_date              2020-11-30 
_audit_creation_method            'lammps2cif' 
_symmetry_space_group_name_H-M    'P1' 
_symmetry_Int_Tables_number       1 
_symmetry_cell_setting            triclinic 
loop_ 
_symmetry_equiv_pos_as_xyz 
  x,y,z 
_cell_length_a                    39.79290928 
_cell_length_b                    39.570315670195775 
_cell_length_c                    26.295917089870613 
_cell_angle_alpha                 89.39626928128979 
_cell_angle_beta                  90.06122362993068 
_cell_angle_gamma                 119.97839617368778 
loop_ 
_atom_site_label 
_atom_site_type_symbol 
_atom_site_fract_x 
_atom_site_fract_y 
_atom_site_fract_z 
_atom_site_charge 
N1          N  0.42979028  0.20657677  0.13834958    -0.03400
C2          C  0.42007910  0.23476831  0.13265806    -0.00800
C3          C  0.40204349  0.23690892  0.17650221    -0.23700
C4          C  0.40087548  0.20939930  0.21015256    -0.23900
C5          C  0.41798050  0.19104944  0.18570031    -0.00900
H6          H  0.39308807  0.25804112  0.18441368     0.12900
H7          H  0.39071340  0.20487521  0.24913788     0.12900
N8          N  0.22960468  0.84259649  0.40535917    -0.03400
C9          C  0.26009638  0.87975677  0.40363854    -0.00800
C10         C  0.25959434  0.89753297  0.35826508    -0.23700
C11         C  0.22862719  0.87047583  0.33079633    -0.23900
C12         C  0.21073010  0.83698126  0.36039568    -0.00900
H13         H  0.28171333  0.92592843  0.34451042     0.12900
H14         H  0.22198047  0.87386256  0.29181270     0.12900
N15         N  0.88897351  0.23691380  0.16081751    -0.03400
C16         C  0.86367579  0.19757726  0.15853033    -0.00800
C17         C  0.86962751  0.18297121  0.11386285    -0.23700
C18         C  0.89785605  0.21369154  0.08683061    -0.23900
C19         C  0.90876015  0.24627398  0.11585561    -0.00900
H20         H  0.85177954  0.15373653  0.09950902     0.12900
H21         H  0.90790307  0.21271125  0.04893656     0.12900
N22         N  0.66406120  0.83963881  0.39272780    -0.03400
C23         C  0.65936463  0.80320560  0.39227101    -0.00800
C24         C  0.66413423  0.79237883  0.44066684    -0.23700
C25         C  0.67129960  0.82274794  0.47212365    -0.23900
C26         C  0.67108243  0.85147617  0.44194185    -0.00900
H27         H  0.66161497  0.76483469  0.45203576     0.12900
H28         H  0.67455900  0.82307082  0.51300327     0.12900
N29         N  0.86107489  0.66942170  0.06633687    -0.03400
C30         C  0.89975241  0.68153636  0.06836838    -0.00800
C31         C  0.91792540  0.70379694  0.02528436    -0.23700
C32         C  0.88996864  0.70458787  0.99557839    -0.23900
C33         C  0.85547839  0.68340021  0.02165455    -0.00900
H34         H  0.94761907  0.71415248  0.01363696     0.12900
H35         H  0.89421541  0.71961851  0.46982086     0.12900
N36         N  0.25428443  0.39307591  0.31830983    -0.03400
C37         C  0.21786913  0.38809018  0.31655818    -0.00800
C38         C  0.20022900  0.37035442  0.27145125    -0.23700
C39         C  0.22667502  0.36524697  0.24406549    -0.23900
C40         C  0.25971516  0.37970610  0.27337890    -0.00900
H41         H  0.17241468  0.36522755  0.25777987     0.12900
H42         H  0.22338333  0.35551970  0.20513809     0.12900
O43         O  0.95799965  0.36199401  0.34472467    -0.78400
C44         C  0.99685514  0.38101167  0.49859761     0.82600
O45         O  0.95883373  0.47971776  0.39002705    -0.79500
O46         O  0.07433278  0.50381302  0.48631036    -0.81000
O47         O  0.09661939  0.44034683  0.33432409    -0.80800
O48         O  0.00527843  0.38789004  0.28702828    -0.79400
Zn49       Zn  0.97385901  0.40239921  0.39880722     1.55700
O50         O  0.10677332  0.44845075  0.41824424    -0.80800
Cd51       Cd  0.04522417  0.44204948  0.32015864     1.59700
Cd52       Cd  0.01694066  0.49514191  0.38495618     1.59600
O53         O  0.05558518  0.48930435  0.27105674    -0.80800
O54         O  0.02407163  0.44813267  0.38679886    -1.91300
Cd55       Cd  0.05983784  0.45353420  0.44455220     1.59900
O56         O  0.03744666  0.52506670  0.31662412    -0.80800
O57         O  0.03192279  0.40853156  0.49717333    -0.79400
C58         C  0.92930873  0.44634944  0.39847791     0.83100
C59         C  0.97270128  0.35975366  0.30291523     0.82800
O60         O  0.97280035  0.37665093  0.46401945    -0.78400
C61         C  0.11604855  0.44226225  0.37419899     0.83600
O62         O  0.93240010  0.41603879  0.40307076    -0.78500
C63         C  0.05085924  0.51893937  0.27585421     0.83700
C64         C  0.06421858  0.52982293  0.48360356     0.84000
O65         O  0.04377587  0.53109830  0.44698346    -0.80900
O66         O  0.16808055  0.71586997  0.08857854    -0.78400
C67         C  0.12689994  0.70008196  0.24378132     0.82600
O68         O  0.16631868  0.60004036  0.13924569    -0.79500
O69         O  0.05309682  0.57483220  0.23742582    -0.81000
O70         O  0.02850984  0.63727417  0.08366893    -0.80800
O71         O  0.11947553  0.68991556  0.03337781    -0.79400
Zn72       Zn  0.15127928  0.67720235  0.14661228     1.55700
O73         O  0.01602388  0.62526628  0.16689923    -0.80800
Cd74       Cd  0.08002098  0.63700303  0.06962893     1.59700
Cd75       Cd  0.10834455  0.58400551  0.13448856     1.59600
O76         O  0.06908664  0.59066712  0.02122032    -0.80800
O77         O  0.10128649  0.63096988  0.13620463    -1.91300
Cd78       Cd  0.06536574  0.62474049  0.19409327     1.59900
O79         O  0.08841028  0.55522691  0.06627120    -0.80800
O80         O  0.09208560  0.67181708  0.24332362    -0.79400
C81         C  0.19561522  0.63325026  0.14835046     0.83100
C82         C  0.15309655  0.71717648  0.04642020     0.82800
O83         O  0.15151083  0.70444375  0.20986869    -0.78400
C84         C  0.00715300  0.63204326  0.12265821     0.83600
O85         O  0.19258473  0.66351990  0.15292098    -0.78500
C86         C  0.07439674  0.56144618  0.02591228     0.83700
C87         C  0.06207286  0.54802210  0.23391453     0.84000
O88         O  0.08148726  0.54650484  0.19629501    -0.80900
O89         O  0.49269840  0.13051530  0.34400160    -0.78400
C90         C  0.48443261  0.13141359  0.50615477     0.82600
O91         O  0.60980128  0.13754549  0.40374332    -0.79500
O92         O  0.52284549  0.04458294  0.53010031    -0.81000
O93         O  0.43128985  0.99255382  0.39096094    -0.80800
O94         O  0.46111848  0.07092342  0.31127252    -0.79400
Zn95       Zn  0.52005626  0.12810936  0.40574396     1.55700
O96         O  0.43381213  0.00607836  0.47382683    -0.80800
Cd97       Cd  0.48046646  0.04105275  0.35901312     1.59700
Cd98       Cd  0.56575065  0.08010087  0.41420130     1.59600
O99         O  0.51366461  0.02497105  0.31289934    -0.80800
O100        O  0.51334603  0.07643035  0.41537739    -1.91300
Cd101      Cd  0.48746466  0.05646514  0.48330272     1.59900
O102        O  0.57072009  0.04978880  0.35251278    -0.80800
O103        O  0.47671468  0.09710935  0.51930527    -0.79400
C104        C  0.60733519  0.16803515  0.39596014     0.83100
C105        C  0.47051770  0.10688542  0.31069448     0.82800
O106        O  0.50120143  0.14669681  0.46418009    -0.78400
C107        C  0.41648147  0.98455680  0.43576970     0.83600
O108        O  0.57511313  0.16726208  0.39544727    -0.78500
C109        C  0.54845463  0.03116060  0.31553875     0.83700
C110        C  0.55621282  0.04771587  0.52450055     0.84000
O111        O  0.57563971  0.06022039  0.48315156    -0.80900
O112        O  0.63442620  0.93943423  0.09190684    -0.78400
C113        C  0.63361977  0.93296945  0.25439529     0.82600
O114        O  0.51279583  0.92676878  0.15093328    -0.79500
O115        O  0.59829510  0.02242056  0.27813896    -0.81000
O116        O  0.69071895  0.07325627  0.13800116    -0.80800
O117        O  0.66139370  0.99819218  0.05579229    -0.79400
Zn118      Zn  0.60427574  0.94020996  0.15143459     1.55700
O119        O  0.68778581  0.05963153  0.22121280    -0.80800
Cd120      Cd  0.64173430  0.02576116  0.10655679     1.59700
Cd121      Cd  0.55544028  0.98434269  0.16475529     1.59600
O122        O  0.60752753  0.04136816  0.06273089    -0.80800
O123        O  0.60888995  0.99024132  0.16363585    -1.91300
Cd124      Cd  0.63361822  0.00964842  0.23170805     1.59900
O125        O  0.55041752  0.01504299  0.10350492    -0.80800
O126        O  0.64191974  0.96710943  0.26832035    -0.79400
C127        C  0.51741309  0.89873781  0.13639696     0.83100
C128        C  0.65451866  0.96305701  0.05670769     0.82800
O129        O  0.61904811  0.91967569  0.21119625    -0.78400
C130        C  0.70553298  0.08104648  0.18261096     0.83600
O131        O  0.55064571  0.90180922  0.13472687    -0.78500
C132        C  0.57247108  0.03417162  0.06615797     0.83700
C133        C  0.56421517  0.01787343  0.27372289     0.84000
O134        O  0.54399637  0.00339532  0.23362764    -0.80900
C135        C  0.71216511  0.38704743  0.34545440     0.80300
N136        N  0.69307789  0.34750635  0.34787427    -0.78000
C137        C  0.71178043  0.32869599  0.36437067     0.82800
N138        N  0.74892587  0.34950564  0.38035024    -0.77900
C139        C  0.76798223  0.38905149  0.37936231     0.82800
N140        N  0.74976434  0.40779298  0.36072940    -0.79700
C141        C  0.41084581  0.67839777  0.09868403     0.80300
N142        N  0.37228526  0.65978954  0.10979317    -0.78000
C143        C  0.35389585  0.68054615  0.11567009     0.82800
N144        N  0.37420668  0.71990033  0.11091526    -0.77900
C145        C  0.41239137  0.73869501  0.09893510     0.82800
N146        N  0.43074236  0.71780658  0.09278127    -0.79700
O147        O  0.38668046  0.46527332  0.00104215    -0.78400
C148        C  0.39722517  0.43342984  0.15678251     0.82600
O149        O  0.49726098  0.57565293  0.05180173    -0.79500
O150        O  0.52299294  0.48769666  0.15191174    -0.81000
O151        O  0.45601874  0.39339935  0.00607176    -0.80800
O152        O  0.40990599  0.43775175  0.94891122    -0.79400
Zn153      Zn  0.42208173  0.48269847  0.06068202     1.55700
O154        O  0.47544809  0.40175228  0.08709969    -0.80800
Cd155      Cd  0.46097919  0.44796811  0.98654809     1.59700
Cd156      Cd  0.51383549  0.53309321  0.04673372     1.59600
O157        O  0.50854140  0.48165805  0.93761237    -0.80800
O158        O  0.46782973  0.47870237  0.05032433    -1.91300
Cd159      Cd  0.47429316  0.45080143  0.11001687     1.59900
O160        O  0.54156861  0.53877929  0.97790484    -0.80800
O161        O  0.42718243  0.42979340  0.15919181    -0.79400
C162        C  0.46448381  0.57071021  0.06616939     0.83100
C163        C  0.38472416  0.44758491  0.96022951     0.82800
O164        O  0.39211077  0.45216241  0.12103668    -0.78400
C165        C  0.46425553  0.38121327  0.04700631     0.83600
O166        O  0.43535669  0.53693629  0.07277065    -0.78500
C167        C  0.53670599  0.51690299  0.93989169     0.83700
C168        C  0.54991611  0.52315884  0.14683269     0.84000
O169        O  0.55162345  0.54394416  0.10829542    -0.80900
O170        O  0.73307509  0.60416164  0.24749541    -0.78400
C171        C  0.71917989  0.62250635  0.40370779     0.82600
O172        O  0.62039834  0.48499738  0.30098426    -0.79500
O173        O  0.59484221  0.57153424  0.40114137    -0.81000
O174        O  0.65031393  0.66265737  0.25034975    -0.80800
O175        O  0.70685873  0.62912514  0.19541831    -0.79400
Zn176      Zn  0.69548717  0.57872479  0.30440383     1.55700
O177        O  0.63980581  0.65616785  0.33432135    -0.80800
Cd178      Cd  0.65318663  0.61196145  0.23242210     1.59700
Cd179      Cd  0.60251658  0.52656782  0.29648292     1.59600
O180        O  0.60703094  0.57555917  0.18392532    -0.80800
O181        O  0.64856778  0.58133082  0.29690628    -1.91300
Cd182      Cd  0.64324088  0.60837106  0.35750919     1.59900
O183        O  0.57371759  0.51940248  0.22787177    -0.80800
O184        O  0.69090303  0.62891108  0.40505427    -0.79400
C185        C  0.65469288  0.49043488  0.30511590     0.83100
C186        C  0.73461468  0.62301151  0.20740430     0.82800
O187        O  0.72322067  0.60331581  0.36821582    -0.78400
C188        C  0.64445206  0.67472414  0.29264042     0.83600
O189        O  0.68415563  0.52437142  0.30655133    -0.78500
C190        C  0.57877251  0.54041317  0.18815331     0.83700
C191        C  0.56725884  0.53637344  0.39713623     0.84000
O192        O  0.56496160  0.51547764  0.35905366    -0.80900
C193        C  0.43100651  0.65582557  0.09491822    -0.06000
C194        C  0.45387658  0.66059512  0.05178307    -0.17200
C195        C  0.46735644  0.63455768  0.04209112     0.11200
C196        C  0.45859549  0.60383938  0.07703230    -0.06000
C197        C  0.43843343  0.60127491  0.12197939    -0.17200
C198        C  0.42490299  0.62696605  0.13149230     0.11200
S199        S  0.49240351  0.64006237  0.98283007    -0.32200
S200        S  0.39978250  0.62109526  0.19089956    -0.32200
H201        H  0.41176699  0.66087443  0.19629228     0.31400
H202        H  0.47410192  0.59995188  0.97245539     0.29200
H203        H  0.45895445  0.68297465  0.02378938     0.19800
H204        H  0.43219065  0.57821085  0.14945120     0.19800
C205        C  0.66217168  0.45761880  0.30869256    -0.06000
C206        C  0.69296167  0.46042741  0.27936901    -0.17200
C207        C  0.70788353  0.43565985  0.28814197     0.11200
C208        C  0.69214487  0.40763659  0.32759006    -0.06000
C209        C  0.65921921  0.40239904  0.35410275    -0.17200
C210        C  0.64430595  0.42744297  0.34549204     0.11200
S211        S  0.74762365  0.44181518  0.24858303    -0.32200
S212        S  0.60516096  0.42175229  0.38582164    -0.32200
H213        H  0.62083605  0.46182345  0.39479713     0.29200
H214        H  0.73879086  0.40270466  0.25186765     0.29200
H215        H  0.70649371  0.48315689  0.25054495     0.19800
H216        H  0.64689835  0.38064486  0.38425139     0.19800
C217        C  0.48464639  0.86124348  0.11996216    -0.06000
C218        C  0.49144307  0.84308598  0.07871936    -0.17200
C219        C  0.46664086  0.80379047  0.06839087     0.11200
C220        C  0.43473294  0.78159718  0.10084656    -0.06000
C221        C  0.42580664  0.80055093  0.13908336    -0.17200
C222        C  0.45018405  0.84027276  0.14852710     0.11200
S223        S  0.47765725  0.78371347  0.01383065    -0.32200
S224        S  0.43804599  0.86132017  0.20070420    -0.32200
H225        H  0.44179728  0.89298095  0.17139394     0.29200
H226        H  0.43881891  0.75610718  0.00308470     0.29200
H227        H  0.51724180  0.85935392  0.05545354     0.19800
H228        H  0.40084678  0.78395075  0.16361316     0.19800
C229        C  0.64190414  0.20579840  0.38579760    -0.06000
C230        C  0.64519865  0.22211954  0.33720060    -0.17200
C231        C  0.66976429  0.26192699  0.32823766     0.11200
C232        C  0.69099247  0.28604186  0.36899653    -0.06000
C233        C  0.68986628  0.26928469  0.41670766    -0.17200
C234        C  0.66542602  0.22936675  0.42559256     0.11200
S235        S  0.67177713  0.28032922  0.26458316    -0.32200
S236        S  0.66198436  0.21127379  0.48968860    -0.32200
H237        H  0.65454627  0.17399668  0.47580963     0.29200
H238        H  0.71009525  0.31158495  0.26772659     0.29200
H239        H  0.62690899  0.20405861  0.30666923     0.19800
H240        H  0.70629711  0.28775174  0.44805327     0.19800
C241        C  0.23473361  0.63802372  0.15048630    -0.06000
C242        C  0.24437714  0.61719006  0.11617792    -0.17200
C243        C  0.28320558  0.62891111  0.10567512     0.11200
C244        C  0.31285025  0.66171674  0.13069986    -0.06000
C245        C  0.30294520  0.67976584  0.16874098    -0.17200
C246        C  0.26437403  0.66795031  0.17946714     0.11200
S247        S  0.29278881  0.60333792  0.05661770    -0.32200
S248        S  0.25505633  0.69292979  0.22973854    -0.32200
H249        H  0.21893022  0.66084389  0.24369675     0.29200
H250        H  0.32225947  0.63718687  0.03272539     0.29200
H251        H  0.22181509  0.59390285  0.09412454     0.19800
H252        H  0.32556867  0.70406499  0.18944648     0.19800
C253        C  0.88985989  0.44094528  0.40274503    -0.06000
C254        C  0.86381839  0.41107408  0.43549592    -0.17200
C255        C  0.82397841  0.39635749  0.43223296     0.11200
C256        C  0.80927975  0.41080295  0.39407314    -0.06000
C257        C  0.83539239  0.44367648  0.36524373    -0.17200
C258        C  0.87559492  0.45936098  0.36987162     0.11200
S259        S  0.79359679  0.35839486  0.47705437    -0.32200
S260        S  0.90668140  0.50011635  0.32940190    -0.32200
H261        H  0.93047628  0.52231448  0.36975558     0.29200
H262        H  0.76433453  0.36846097  0.47863647     0.29200
H263        H  0.87450969  0.39784224  0.46256075     0.19800
H264        H  0.82451503  0.45576538  0.33680124     0.19800
C265        C  0.20192468  0.40840144  0.34679572    -0.06000
C266        C  0.20741504  0.44398903  0.32701273    -0.17200
C267        C  0.18097275  0.45689412  0.33751691     0.11200
C268        C  0.14877957  0.43432179  0.36946177    -0.06000
C269        C  0.14545790  0.40075101  0.39325538    -0.17200
C270        C  0.17133871  0.38730378  0.38156938     0.11200
S271        S  0.18737693  0.50118484  0.30816545    -0.32200
S272        S  0.16329303  0.34133700  0.40722234    -0.32200
H273        H  0.13036333  0.33278492  0.43652928     0.29200
H274        H  0.22375940  0.51288309  0.28589877     0.29200
H275        H  0.23033351  0.45971898  0.29934060     0.19800
H276        H  0.12086471  0.38351446  0.41804715     0.19800
C277        C  0.34911801  0.43272455  0.42072194    -0.06000
C278        C  0.32686712  0.39308028  0.40897682    -0.17200
C279        C  0.29308042  0.37899239  0.37955773     0.11200
C280        C  0.28137340  0.40496726  0.36017527    -0.06000
C281        C  0.30239516  0.44428889  0.37403943    -0.17200
C282        C  0.33628150  0.45849615  0.40345805     0.11200
S283        S  0.26437767  0.32746176  0.36710818    -0.32200
S284        S  0.38459497  0.51681692  0.89684603    -0.32200
H285        H  0.41612987  0.51079564  0.90512955     0.29200
H286        H  0.28938077  0.31645698  0.39032350     0.29200
H287        H  0.33567128  0.37303618  0.42368658     0.19800
H288        H  0.29407578  0.46450567  0.35854016     0.19800
C289        C  0.29819001  0.38952635  0.25232015    -0.06000
C290        C  0.32837632  0.42831235  0.25656603    -0.17200
C291        C  0.36315368  0.44200689  0.23012234     0.11200
C292        C  0.36764647  0.41699506  0.19676321    -0.06000
C293        C  0.33864468  0.37772266  0.19408447    -0.17200
C294        C  0.30406613  0.36353942  0.22191240     0.11200
S295        S  0.39954534  0.49269462  0.23711484    -0.32200
S296        S  0.26819004  0.31275690  0.21442892    -0.32200
H297        H  0.24799691  0.30856529  0.25989760     0.29200
H298        H  0.43143287  0.48800094  0.22532088     0.29200
H299        H  0.32407063  0.44910123  0.27774122     0.19800
H300        H  0.34201529  0.35857167  0.16801047     0.19800
C301        C  0.97203975  0.63593715  0.11611006    -0.06000
C302        C  0.96558324  0.65963352  0.14974491    -0.17200
C303        C  0.93878150  0.67204626  0.13836235     0.11200
C304        C  0.91721847  0.65987176  0.09288617    -0.06000
C305        C  0.92122150  0.63327572  0.06193800    -0.17200
C306        C  0.94809752  0.62126118  0.07288975     0.11200
S307        S  0.93631557  0.70618744  0.18088111    -0.32200
S308        S  0.95174873  0.58869883  0.02861218    -0.32200
H309        H  0.96336992  0.57024493  0.06489178     0.29200
H310        H  0.90129423  0.70206125  0.16288398     0.29200
H311        H  0.98360698  0.67100404  0.18317706     0.19800
H312        H  0.90512282  0.62392789  0.02668351     0.19800
C313        C  0.83399577  0.65925551  0.10832671    -0.06000
C314        C  0.82054976  0.68522609  0.11977456    -0.17200
C315        C  0.78861444  0.67456903  0.15177584     0.11200
C316        C  0.76955169  0.63706379  0.17437693    -0.06000
C317        C  0.78461899  0.61201342  0.16592072    -0.17200
C318        C  0.81586901  0.62226468  0.13242726     0.11200
S319        S  0.77393990  0.71030292  0.16228403    -0.32200
S320        S  0.82914715  0.58587858  0.11968396    -0.32200
H321        H  0.83862881  0.59621317  0.06829929     0.29200
H322        H  0.76363810  0.70020496  0.21365355     0.29200
H323        H  0.83435242  0.71380207  0.10177936     0.19800
H324        H  0.77059256  0.58327195  0.18354050     0.19800
C325        C  0.81670298  0.67113396  0.99971529    -0.06000
C326        C  0.78850748  0.63143775  0.00313726    -0.17200
C327        C  0.75361322  0.61645159  0.97683704     0.11200
C328        C  0.74841002  0.63720296  0.44394726    -0.06000
C329        C  0.77213669  0.67759215  0.44964563    -0.17200
C330        C  0.80561346  0.69283726  0.47961065     0.11200
S331        S  0.71968762  0.56484215  0.98274684    -0.32200
S332        S  0.83428837  0.74515480  0.48464221    -0.32200
H333        H  0.85677526  0.75149284  0.01742520     0.29200
H334        H  0.69175600  0.55880327  0.45935839     0.29200
H335        H  0.79434111  0.61141534  0.02447751     0.19800
H336        H  0.76553138  0.69734684  0.42883921     0.19800
C337        C  0.64351799  0.71164319  0.29624249    -0.06000
C338        C  0.61125764  0.70956022  0.32098053    -0.17200
C339        C  0.61424522  0.74164509  0.34725326     0.11200
C340        C  0.65006791  0.77683714  0.34831699    -0.06000
C341        C  0.68076702  0.78053462  0.31800082    -0.17200
C342        C  0.67779730  0.74835328  0.29176254     0.11200
S343        S  0.57375563  0.73604405  0.38490086    -0.32200
S344        S  0.72063666  0.75428759  0.26035676    -0.32200
H345        H  0.70038070  0.72924670  0.22009269     0.29200
H346        H  0.54759374  0.69717370  0.37176121     0.29200
H347        H  0.58495880  0.68150784  0.32442821     0.19800
H348        H  0.70848471  0.80735574  0.31904762     0.19800
C349        C  0.66720744  0.94708105  0.01515122    -0.06000
C350        C  0.69410646  0.93653363  0.52866058    -0.17200
C351        C  0.69976512  0.90995245  0.50035570     0.11200
C352        C  0.67224651  0.88686473  0.46315291    -0.06000
C353        C  0.64174580  0.89397980  0.45208632    -0.17200
C354        C  0.63901954  0.91822016  0.98365829     0.11200
S355        S  0.74174993  0.90568312  0.51540101    -0.32200
S356        S  0.59002927  0.90991041  0.98244856    -0.32200
H357        H  0.57631734  0.88224636  0.94332032     0.29200
H358        H  0.74503909  0.89210538  0.46754709     0.29200
H359        H  0.71358040  0.95180160  0.55975152     0.19800
H360        H  0.62002100  0.87595758  0.42470333     0.19800
C361        C  0.64121761  0.90782317  0.28857634    -0.06000
C362        C  0.67844801  0.92267855  0.30897909    -0.17200
C363        C  0.68771623  0.89924904  0.33928003     0.11200
C364        C  0.65886427  0.86060596  0.35132640    -0.06000
C365        C  0.62216648  0.84519423  0.32911908    -0.17200
C366        C  0.61295153  0.86834870  0.29812233     0.11200
S367        S  0.73690089  0.91994845  0.36130837    -0.32200
S368        S  0.56392211  0.84647760  0.27469247    -0.32200
H369        H  0.56114278  0.88046205  0.27787216     0.29200
H370        H  0.73572763  0.88406227  0.36811508     0.29200
H371        H  0.70067586  0.95244147  0.30033514     0.19800
H372        H  0.59980476  0.81578502  0.33883083     0.19800
C373        C  0.82355116  0.17647434  0.17937035    -0.06000
C374        C  0.81332305  0.14471030  0.21243442    -0.17200
C375        C  0.77454651  0.11463957  0.21782568     0.11200
C376        C  0.74506420  0.11566220  0.18861896    -0.06000
C377        C  0.75501586  0.14880377  0.15842178    -0.17200
C378        C  0.79365843  0.17893191  0.15328337     0.11200
S379        S  0.76548957  0.07332010  0.25695355    -0.32200
S380        S  0.80496211  0.21783263  0.10791881    -0.32200
H381        H  0.76660429  0.20922900  0.09929264     0.29200
H382        H  0.73863920  0.07667318  0.28817766     0.29200
H383        H  0.83601889  0.14175170  0.23110324     0.19800
H384        H  0.73267628  0.14986376  0.13612264     0.19800
C385        C  0.95058745  0.32358809  0.27237814    -0.06000
C386        C  0.90979517  0.30550484  0.27032677    -0.17200
C387        C  0.88767435  0.27393456  0.23767529     0.11200
C388        C  0.90670010  0.25996875  0.20609306    -0.06000
C389        C  0.94685759  0.27507802  0.21321964    -0.17200
C390        C  0.96884856  0.30658281  0.24526231     0.11200
S391        S  0.83596181  0.25401567  0.23452141    -0.32200
S392        S  0.02009009  0.32370852  0.24950744    -0.32200
H393        H  0.02296422  0.33283870  0.30147457     0.29200
H394        H  0.83288163  0.27562485  0.27454636     0.29200
H395        H  0.89539661  0.31748490  0.29251376     0.19800
H396        H  0.96171235  0.26356385  0.19101644     0.19800
C397        C  0.93788512  0.28617643  0.09837861    -0.06000
C398        C  0.97194556  0.29156463  0.07481731    -0.17200
C399        C  0.99280029  0.32409912  0.54684562     0.11200
C400        C  0.98228843  0.35300884  0.54105561    -0.06000
C401        C  0.95527413  0.35201731  0.07280492    -0.17200
C402        C  0.93025014  0.31742883  0.09887649     0.11200
S403        S  0.03301638  0.32588842  0.51304002    -0.32200
S404        S  0.88587140  0.31200541  0.12491057    -0.32200
H405        H  0.89523413  0.35114856  0.11930076     0.29200
H406        H  0.05851556  0.36565610  0.52201878     0.29200
H407        H  0.97824392  0.26789620  0.07473428     0.19800
H408        H  0.94784471  0.37481507  0.06938220     0.19800
C409        C  0.37651256  0.95103363  0.44297338    -0.06000
C410        C  0.34854402  0.95829459  0.46478571    -0.17200
C411        C  0.30877299  0.93148124  0.46019819     0.11200
C412        C  0.29632857  0.89639127  0.43368310    -0.06000
C413        C  0.32438121  0.88697613  0.41791840    -0.17200
C414        C  0.36423110  0.91385967  0.42226190     0.11200
S415        S  0.27494850  0.94554445  0.48312232    -0.32200
S416        S  0.39791473  0.89998989  0.39804245    -0.32200
H417        H  0.42891166  0.92486058  0.42956705     0.29200
H418        H  0.24407511  0.90709164  0.48913222     0.29200
H419        H  0.35751248  0.98640955  0.48164535     0.19800
H420        H  0.31532560  0.86031179  0.39709071     0.19800
C421        C  0.21435925  0.81584165  0.44819060    -0.06000
C422        C  0.23211271  0.79433165  0.46297994    -0.17200
C423        C  0.21227992  0.76051702  0.49354475     0.11200
C424        C  0.17403268  0.74816957  0.51065360    -0.06000
C425        C  0.15722065  0.77086190  0.49797996    -0.17200
C426        C  0.17706415  0.80464621  0.46789867     0.11200
S427        S  0.24197599  0.74369408  0.02150138    -0.32200
S428        S  0.15279371  0.83200203  0.45538851    -0.32200
H429        H  0.18596481  0.86711045  0.44114615     0.29200
H430        H  0.21069924  0.70517874  0.02038285     0.29200
H431        H  0.26028966  0.80217053  0.44741296     0.19800
H432        H  0.12849405  0.76244655  0.51216707     0.19800
C433        C  0.18201771  0.79831475  0.34001892    -0.06000
C434        C  0.19064331  0.76806413  0.34430598    -0.17200
C435        C  0.16973202  0.73347121  0.31753044     0.11200
C436        C  0.14015232  0.72914088  0.28423280    -0.06000
C437        C  0.12960099  0.75801460  0.28216691    -0.17200
C438        C  0.15001790  0.79248168  0.30993532     0.11200
S439        S  0.18395914  0.69695839  0.32458992    -0.32200
S440        S  0.13497868  0.82839159  0.30270356    -0.32200
H441        H  0.15138936  0.84844944  0.34785760     0.29200
H442        H  0.14777562  0.66503737  0.31146573     0.29200
H443        H  0.21559998  0.77226438  0.36578202     0.19800
H444        H  0.10694774  0.75479067  0.25635661     0.19800
C445        C  0.45763617  0.34082229  0.05129873    -0.06000
C446        C  0.42008853  0.30946623  0.04285049    -0.17200
C447        C  0.40820365  0.27223822  0.06353476     0.11200
C448        C  0.43437079  0.26587816  0.09286206    -0.06000
C449        C  0.47308710  0.29602045  0.09608916    -0.17200
C450        C  0.48495824  0.33333638  0.07565501     0.11200
S451        S  0.35818786  0.23497554  0.05587248    -0.32200
S452        S  0.53434575  0.37217172  0.08421478    -0.32200
H453        H  0.54833487  0.34912391  0.10645970     0.29200
H454        H  0.36424747  0.20330471  0.06451882     0.29200
H455        H  0.39880535  0.31477744  0.02426642     0.19800
H456        H  0.49305375  0.29157950  0.11934125     0.19800
C457        C  0.42890312  0.16422889  0.21134373    -0.06000
C458        C  0.46832045  0.17510328  0.21122625    -0.17200
C459        C  0.48209748  0.15497333  0.24080897     0.11200
C460        C  0.45593203  0.12284250  0.27098854    -0.06000
C461        C  0.41626111  0.11054891  0.26930788    -0.17200
C462        C  0.40242944  0.13097711  0.24019996     0.11200
S463        S  0.53345309  0.17136965  0.24144246    -0.32200
S464        S  0.35103607  0.11366080  0.24376019    -0.32200
H465        H  0.34810382  0.13223164  0.19974133     0.29200
H466        H  0.54479869  0.20167441  0.20533515     0.29200
H467        H  0.48878548  0.20095046  0.19028761     0.19800
H468        H  0.39620021  0.08620177  0.29302994     0.19800
C469        C  0.44268873  0.19002079  0.09979396    -0.06000
C470        C  0.48188575  0.20872839  0.08548872    -0.17200
C471        C  0.49640309  0.18954563  0.05584186     0.11200
C472        C  0.47115379  0.15070024  0.04041736    -0.06000
C473        C  0.43354898  0.13437106  0.55627805    -0.17200
C474        C  0.41728782  0.15205306  0.08224905     0.11200
S475        S  0.54755928  0.21545338  0.04109564    -0.32200
S476        S  0.36604049  0.12862232  0.09588127    -0.32200
H477        H  0.35541202  0.09305259  0.07197795     0.29200
H478        H  0.55203037  0.18238192  0.04082457     0.29200
H479        H  0.50164494  0.23760583  0.09969528     0.19800
H480        H  0.41431730  0.10445150  0.54525163     0.19800
N481        N  0.43261316  0.20975741  0.64021659    -0.03400
C482        C  0.42890321  0.24208325  0.63775311    -0.00800
C483        C  0.41456261  0.24673187  0.68344733    -0.23700
C484        C  0.40984418  0.21678981  0.71521112    -0.23900
C485        C  0.42125480  0.19458838  0.68787512    -0.00900
H486        H  0.41035064  0.27079426  0.69362435     0.12900
H487        H  0.40186911  0.21335548  0.75503273     0.12900
N488        N  0.22999684  0.84196343  0.90095259    -0.03400
C489        C  0.26212484  0.87793948  0.89751459    -0.00800
C490        C  0.26384795  0.89442786  0.85027214    -0.23700
C491        C  0.23254709  0.86761096  0.82323281    -0.23900
C492        C  0.21231407  0.83564046  0.85497196    -0.00900
H493        H  0.28740302  0.92161754  0.83546792     0.12900
H494        H  0.22710980  0.86986770  0.78336373     0.12900
N495        N  0.88704969  0.23924426  0.66457993    -0.03400
C496        C  0.86287621  0.19971673  0.66646377    -0.00800
C497        C  0.87103942  0.18262013  0.62614428    -0.23700
C498        C  0.89853792  0.21197249  0.59657107    -0.23900
C499        C  0.90713668  0.24622996  0.62017694    -0.00900
H500        H  0.85437597  0.15234727  0.61507348     0.12900
H501        H  0.90938075  0.20877518  0.56026840     0.12900
N502        N  0.67825158  0.85016096  0.88965973    -0.03400
C503        C  0.67857884  0.81605661  0.89046402    -0.00800
C504        C  0.69204243  0.81137042  0.93703020    -0.23700
C505        C  0.69969682  0.84335173  0.96580658    -0.23900
C506        C  0.69071031  0.86667455  0.93595045    -0.00900
H507        H  0.69400835  0.78630492  0.94968935     0.12900
H508        H  0.70809961  0.84762823  0.00540134     0.12900
N509        N  0.85800156  0.66414070  0.57211388    -0.03400
C510        C  0.89688044  0.67850237  0.57724595    -0.00800
C511        C  0.91634454  0.70421834  0.53740379    -0.23700
C512        C  0.88900278  0.70497894  0.50636660    -0.23900
C513        C  0.85362030  0.68020873  0.52857094    -0.00900
H514        H  0.94686467  0.71704397  0.52828446     0.12900
H515        H  0.89397036  0.71669995  0.95751919     0.12900
N516        N  0.25738322  0.40291113  0.82548923    -0.03400
C517        C  0.21911334  0.39170313  0.82775854    -0.00800
C518        C  0.19987906  0.36620232  0.78835697    -0.23700
C519        C  0.22707773  0.36233291  0.76080794    -0.23900
C520        C  0.26211736  0.38537789  0.78430718    -0.00900
H521        H  0.17014738  0.35562780  0.77695008     0.12900
H522        H  0.22245320  0.34777571  0.72472898     0.12900
O523        O  0.95765419  0.36351153  0.84965039    -0.78400
C524        C  0.00039093  0.38374678  0.00254826     0.82600
O525        O  0.95627382  0.47859677  0.89269874    -0.79500
O526        O  0.07358583  0.50725906  0.98737940    -0.81000
O527        O  0.09521260  0.44363438  0.83655230    -0.80800
O528        O  0.00396868  0.39018342  0.79079818    -0.79400
Zn529      Zn  0.97404347  0.40361885  0.90416859     1.55700
O530        O  0.10903466  0.45604958  0.91899508    -0.80800
Cd531      Cd  0.04346575  0.44371666  0.82384071     1.59700
Cd532      Cd  0.01486439  0.49624936  0.88725098     1.59600
O533        O  0.05337356  0.48954735  0.77394867    -0.80800
O534        O  0.02318041  0.45010819  0.89051899    -1.91300
Cd535      Cd  0.06041952  0.45720149  0.94694928     1.59900
O536        O  0.03464217  0.52543489  0.81795125    -0.80800
O537        O  0.03503080  0.41217272  0.00041582    -0.79400
C538        C  0.92744861  0.44514201  0.90316574     0.83100
C539        C  0.97175843  0.36189197  0.80704469     0.82800
O540        O  0.97552792  0.37847823  0.96871032    -0.78400
C541        C  0.11712805  0.44887141  0.87478978     0.83600
O542        O  0.93153796  0.41558444  0.90996753    -0.78500
C543        C  0.04832061  0.51892433  0.77766273     0.83700
C544        C  0.06303592  0.53288777  0.98450369     0.84000
O545        O  0.04184151  0.53343247  0.94835014    -0.80900
O546        O  0.16760636  0.71191205  0.58588857    -0.78400
C547        C  0.12690955  0.69853126  0.74114769     0.82600
O548        O  0.16474365  0.59657240  0.64161694    -0.79500
O549        O  0.05153866  0.57444436  0.73748029    -0.81000
O550        O  0.02645621  0.63323228  0.58218690    -0.80800
O551        O  0.11794848  0.68680693  0.53210187    -0.79400
Zn552      Zn  0.15074808  0.67420634  0.64497630     1.55700
O553        O  0.01618063  0.62422459  0.66608892    -0.80800
Cd554      Cd  0.07869751  0.63353466  0.56833461     1.59700
Cd555      Cd  0.10688512  0.58086827  0.63504133     1.59600
O556        O  0.06936691  0.58717631  0.52053300    -0.80800
O557        O  0.10044793  0.62821502  0.63498070    -1.91300
Cd558      Cd  0.06505072  0.62342253  0.69268784     1.59900
O559        O  0.08811864  0.55162798  0.56651548    -0.80800
O560        O  0.09209589  0.67042942  0.74113756    -0.79400
C561        C  0.19426360  0.62974946  0.65021773     0.83100
C562        C  0.15202351  0.71361706  0.54444078     0.82800
O563        O  0.15134622  0.70255245  0.70720035    -0.78400
C564        C  0.00616559  0.62950032  0.62188960     0.83600
O565        O  0.19179927  0.66040206  0.65356439    -0.78500
C566        C  0.07485844  0.55804265  0.52553312     0.83700
C567        C  0.05982946  0.54719864  0.73494393     0.84000
O568        O  0.07897235  0.54462129  0.69768500    -0.80900
O569        O  0.49080944  0.12951571  0.84583979    -0.78400
C570        C  0.48367057  0.12912493  0.00737953     0.82600
O571        O  0.60857170  0.13691246  0.90417976    -0.79500
O572        O  0.52245741  0.04280905  0.03011445    -0.81000
O573        O  0.43059099  0.99221062  0.89057015    -0.80800
O574        O  0.46015516  0.07061714  0.81128023    -0.79400
Zn575      Zn  0.51854604  0.12659899  0.90665636     1.55700
O576        O  0.43334899  0.00441024  0.97393569    -0.80800
Cd577      Cd  0.47947319  0.04071808  0.85906105     1.59700
Cd578      Cd  0.56485076  0.07947899  0.91477885     1.59600
O579        O  0.51264374  0.02486846  0.81321429    -0.80800
O580        O  0.51229810  0.07528302  0.91588085    -1.91300
Cd581      Cd  0.48683258  0.05464599  0.98369990     1.59900
O582        O  0.56961026  0.04942727  0.85312034    -0.80800
O583        O  0.47593057  0.09478058  0.02019625    -0.79400
C584        C  0.60558515  0.16702992  0.89588587     0.83100
C585        C  0.46917571  0.10644594  0.81174267     0.82800
O586        O  0.50040085  0.14476225  0.96558565    -0.78400
C587        C  0.41600897  0.98354416  0.93543627     0.83600
O588        O  0.57313979  0.16573822  0.89543934    -0.78500
C589        C  0.54738635  0.03103275  0.81605245     0.83700
C590        C  0.55613582  0.04670175  0.02447251     0.84000
O591        O  0.57554163  0.05979270  0.98323810    -0.80900
O592        O  0.63170780  0.93723169  0.59711328    -0.78400
C593        C  0.63584872  0.93684449  0.75752183     0.82600
O594        O  0.51178405  0.92812471  0.65134990    -0.79500
O595        O  0.59733771  0.02285971  0.77879119    -0.81000
O596        O  0.68997975  0.07315903  0.63632444    -0.80800
O597        O  0.65693527  0.99428462  0.55649628    -0.79400
Zn598      Zn  0.60264763  0.94019145  0.65627353     1.55700
O599        O  0.68563308  0.06309489  0.72038473    -0.80800
Cd600      Cd  0.64031999  0.02479527  0.60662252     1.59700
Cd601      Cd  0.55469664  0.98543233  0.66522936     1.59600
O602        O  0.60672403  0.04091809  0.56263968    -0.80800
O603        O  0.60787345  0.99079411  0.66497356    -1.91300
Cd604      Cd  0.63331397  0.01167335  0.73215444     1.59900
O605        O  0.55009328  0.01653371  0.60410138    -0.80800
O606        O  0.64511305  0.97165644  0.76929351    -0.79400
C607        C  0.51608694  0.89929739  0.64010702     0.83100
C608        C  0.65034428  0.95928310  0.55992930     0.82800
O609        O  0.61851111  0.92140974  0.71647333    -0.78400
C610        C  0.70383332  0.08326767  0.68123787     0.83600
O611        O  0.54898015  0.90160366  0.64119685    -0.78500
C612        C  0.57210152  0.03486403  0.56636137     0.83700
C613        C  0.56324623  0.01816384  0.77423766     0.84000
O614        O  0.54318240  0.00406356  0.73398347    -0.80900
C615        C  0.71153834  0.38772881  0.84694677     0.80300
N616        N  0.69144295  0.34818986  0.84996685    -0.78000
C617        C  0.70882433  0.32853864  0.86834123     0.82800
N618        N  0.74560748  0.34859017  0.88587560    -0.77900
C619        C  0.76557696  0.38810731  0.88452373     0.82800
N620        N  0.74860662  0.40756933  0.86430012    -0.79700
C621        C  0.40897307  0.68005852  0.59168505     0.80300
N622        N  0.37124223  0.66084016  0.60670935    -0.78000
C623        C  0.35297953  0.68114945  0.61728457     0.82800
N624        N  0.37282375  0.72065083  0.61413185    -0.77900
C625        C  0.41039493  0.74001289  0.59876864     0.82800
N626        N  0.42842468  0.71949456  0.58785658    -0.79700
O627        O  0.38447102  0.46466029  0.49432147    -0.78400
C628        C  0.39473027  0.44263737  0.65413963     0.82600
O629        O  0.49760986  0.57887328  0.54834077    -0.79500
O630        O  0.51909309  0.49134094  0.65294563    -0.81000
O631        O  0.45974662  0.39761119  0.50720421    -0.80800
O632        O  0.40918973  0.43650629  0.44598089    -0.79400
Zn633      Zn  0.42036621  0.48669916  0.55343826     1.55700
O634        O  0.47243207  0.40568602  0.59046960    -0.80800
Cd635      Cd  0.46138736  0.45042858  0.48493970     1.59700
Cd636      Cd  0.51370367  0.53607879  0.54497209     1.59600
O637        O  0.50936035  0.48493806  0.43626949    -0.80800
O638        O  0.46650870  0.48214013  0.54749520    -1.91300
Cd639      Cd  0.47085219  0.45509484  0.60985959     1.59900
O640        O  0.54288001  0.54187586  0.47682225    -0.80800
O641        O  0.42328646  0.43674932  0.65744305    -0.79400
C642        C  0.46415748  0.57495708  0.55550323     0.83100
C643        C  0.38296495  0.44546070  0.45515174     0.82800
O644        O  0.39065905  0.46072882  0.61659189    -0.78400
C645        C  0.46573588  0.38580259  0.55011084     0.83600
O646        O  0.43371334  0.54176430  0.55841605    -0.78500
C647        C  0.53800671  0.51998250  0.43877296     0.83700
C648        C  0.54716388  0.52620499  0.64771682     0.84000
O649        O  0.55036501  0.54682299  0.60826842    -0.80900
O650        O  0.72884154  0.60162625  0.75040225    -0.78400
C651        C  0.71692578  0.62500771  0.90590202     0.82600
O652        O  0.61931315  0.48503568  0.79772127    -0.79500
O653        O  0.59223974  0.56926710  0.90241535    -0.81000
O654        O  0.65044937  0.66478455  0.75576683    -0.80800
O655        O  0.70362504  0.62758984  0.69811016    -0.79400
Zn656      Zn  0.69254253  0.57899144  0.80852955     1.55700
O657        O  0.63506103  0.65501814  0.83828737    -0.80800
Cd658      Cd  0.65076892  0.61285043  0.73560723     1.59700
Cd659      Cd  0.60041013  0.52611555  0.79612400     1.59600
O660        O  0.60404925  0.57794649  0.68662883    -0.80800
O661        O  0.64571966  0.58125545  0.79909372    -1.91300
Cd662      Cd  0.63984358  0.60768284  0.85983855     1.59900
O663        O  0.57113908  0.52056699  0.72801459    -0.80800
O664        O  0.68762956  0.62976315  0.90767819    -0.79400
C665        C  0.65340520  0.49106033  0.80663702     0.83100
C666        C  0.73044771  0.61999121  0.70987292     0.82800
O667        O  0.72140116  0.60589955  0.87072924    -0.78400
C668        C  0.64273708  0.67564620  0.79786184     0.83600
O669        O  0.68176392  0.52514806  0.81302976    -0.78500
C670        C  0.57591475  0.54262953  0.68949162     0.83700
C671        C  0.56539438  0.53385684  0.89803841     0.84000
O672        O  0.56333429  0.51343165  0.85950919    -0.80900
C673        C  0.42951942  0.65845804  0.58375315    -0.06000
C674        C  0.44067592  0.65527161  0.53426254    -0.17200
C675        C  0.45558832  0.63058303  0.52401828     0.11200
C676        C  0.45950275  0.60890700  0.56425398    -0.06000
C677        C  0.45023269  0.61384287  0.61402695    -0.17200
C678        C  0.43567068  0.63864001  0.62426704     0.11200
S679        S  0.46554279  0.62528623  0.45860433    -0.32200
S680        S  0.42412880  0.64266561  0.68946524    -0.32200
H681        H  0.43142926  0.68122013  0.68517969     0.31400
H682        H  0.49367472  0.61463353  0.46876891     0.29200
H683        H  0.43606006  0.67067013  0.50315520     0.19800
H684        H  0.45276181  0.59687671  0.64491692     0.19800
C685        C  0.66242292  0.45914038  0.80886470    -0.06000
C686        C  0.69779524  0.46685223  0.78695127    -0.17200
C687        C  0.71306289  0.44240957  0.79561926     0.11200
C688        C  0.69283877  0.40935272  0.82748767    -0.06000
C689        C  0.65572222  0.39943267  0.84552011    -0.17200
C690        C  0.64049314  0.42425788  0.83711681     0.11200
S691        S  0.75873768  0.45542951  0.76541825    -0.32200
S692        S  0.59504702  0.41167586  0.86732681    -0.32200
H693        H  0.60729845  0.44945847  0.88514162     0.29200
H694        H  0.75127969  0.41689747  0.76075063     0.29200
H695        H  0.71445503  0.49305060  0.76407953     0.19800
H696        H  0.63981317  0.37381112  0.86959041     0.19800
C697        C  0.48352262  0.86206004  0.62301243    -0.06000
C698        C  0.49096993  0.84422098  0.58207053    -0.17200
C699        C  0.46592025  0.80528207  0.57044987     0.11200
C700        C  0.43295936  0.78296827  0.60142964    -0.06000
C701        C  0.42366416  0.80176554  0.63953144    -0.17200
C702        C  0.44843354  0.84121065  0.65024837     0.11200
S703        S  0.47825608  0.78598409  0.51621540    -0.32200
S704        S  0.43600349  0.86196252  0.70247920    -0.32200
H705        H  0.44128156  0.89455448  0.67399096     0.29200
H706        H  0.43957138  0.76025907  0.50231118     0.29200
H707        H  0.51740997  0.86049723  0.55994429     0.19800
H708        H  0.39812096  0.78522033  0.66310772     0.19800
C709        C  0.63965241  0.20499591  0.88510404    -0.06000
C710        C  0.63998286  0.22280450  0.83861516    -0.17200
C711        C  0.66408573  0.26277608  0.83090670     0.11200
C712        C  0.68761039  0.28572695  0.87114753    -0.06000
C713        C  0.68938477  0.26746213  0.91637989    -0.17200
C714        C  0.66576602  0.22722199  0.92364018     0.11200
S715        S  0.66299767  0.28266218  0.76929626    -0.32200
S716        S  0.66691511  0.20670785  0.98465978    -0.32200
H717        H  0.66338077  0.17226406  0.96478631     0.29200
H718        H  0.70229310  0.31204004  0.76935786     0.29200
H719        H  0.61993251  0.20566464  0.80889850     0.19800
H720        H  0.70777582  0.28485692  0.94722530     0.19800
C721        C  0.23314800  0.63418372  0.65230594    -0.06000
C722        C  0.24377827  0.61716811  0.61364127    -0.17200
C723        C  0.28284088  0.63079521  0.60241882     0.11200
C724        C  0.31179018  0.66112625  0.63167507    -0.06000
C725        C  0.30096586  0.67530072  0.67349501    -0.17200
C726        C  0.26200295  0.66184455  0.68448472     0.11200
S727        S  0.29360079  0.61166413  0.54673547    -0.32200
S728        S  0.25095610  0.68203618  0.73891766    -0.32200
H729        H  0.21369237  0.64978586  0.74736099     0.29200
H730        H  0.32273625  0.64814835  0.52820821     0.29200
H731        H  0.22177179  0.59604791  0.58866399     0.19800
H732        H  0.32308799  0.69789699  0.69686759     0.19800
C733        C  0.88762640  0.43880653  0.90642086    -0.06000
C734        C  0.86162340  0.40933018  0.93972750    -0.17200
C735        C  0.82175247  0.39474319  0.93666299     0.11200
C736        C  0.80703430  0.40901115  0.89830221    -0.06000
C737        C  0.83312662  0.44097622  0.86818883    -0.17200
C738        C  0.87322988  0.45632646  0.87225540     0.11200
S739        S  0.79137574  0.35741060  0.98219025    -0.32200
S740        S  0.90390552  0.49518283  0.82901963    -0.32200
H741        H  0.92703602  0.51978674  0.86820339     0.29200
H742        H  0.76252970  0.36804813  0.98386843     0.29200
H743        H  0.87236862  0.39650106  0.96732032     0.19800
H744        H  0.82225858  0.45261955  0.83913991     0.19800
C745        C  0.20344254  0.41607290  0.84771740    -0.06000
C746        C  0.19866385  0.44033711  0.81258600    -0.17200
C747        C  0.17284331  0.45403120  0.82195639     0.11200
C748        C  0.15143176  0.44362951  0.86792375    -0.06000
C749        C  0.15966018  0.42313397  0.90547449    -0.17200
C750        C  0.18526316  0.40902452  0.89558653     0.11200
S751        S  0.16672652  0.48379903  0.77429586    -0.32200
S752        S  0.19237247  0.37966379  0.94248958    -0.32200
H753        H  0.17090336  0.38416599  0.98163108     0.29200
H754        H  0.19354707  0.48465008  0.73876529     0.29200
H755        H  0.21310402  0.44607014  0.77601144     0.19800
H756        H  0.14375664  0.41555232  0.94106495     0.19800
C757        C  0.35147705  0.43749953  0.92639542    -0.06000
C758        C  0.32110325  0.39877620  0.92631824    -0.17200
C759        C  0.28773299  0.38766219  0.89714447     0.11200
C760        C  0.28454635  0.41568874  0.86700839    -0.06000
C761        C  0.31387110  0.45489043  0.86956250    -0.17200
C762        C  0.34740884  0.46605717  0.89858672     0.11200
S763        S  0.24949525  0.33728595  0.89717007    -0.32200
S764        S  0.36328972  0.51028284  0.41463739    -0.32200
H765        H  0.40010497  0.51345957  0.41362088     0.29200
H766        H  0.26822768  0.32267824  0.92827948     0.29200
H767        H  0.32361707  0.37726208  0.94926212     0.19800
H768        H  0.31160493  0.47651639  0.84658062     0.19800
C769        C  0.29990436  0.39924702  0.75871731    -0.06000
C770        C  0.32198194  0.43932703  0.74797804    -0.17200
C771        C  0.35489018  0.45447608  0.71717820     0.11200
C772        C  0.36551133  0.42890930  0.69486055    -0.06000
C773        C  0.34474095  0.38902870  0.70733584    -0.17200
C774        C  0.31202473  0.37389162  0.73915274     0.11200
S775        S  0.38147920  0.50662630  0.70662855    -0.32200
S776        S  0.28642089  0.32206505  0.75152386    -0.32200
H777        H  0.26926889  0.32350672  0.79735362     0.29200
H778        H  0.41789137  0.50952848  0.69976815     0.29200
H779        H  0.31248247  0.45891464  0.76161027     0.19800
H780        H  0.35297215  0.36935204  0.69038854     0.19800
C781        C  0.97110765  0.63369512  0.61692701    -0.06000
C782        C  0.96545108  0.65716648  0.65193641    -0.17200
C783        C  0.93773335  0.66877114  0.64337483     0.11200
C784        C  0.91472676  0.65644365  0.59920893    -0.06000
C785        C  0.91815763  0.63029387  0.56669541    -0.17200
C786        C  0.94565103  0.61862917  0.57517623     0.11200
S787        S  0.93547473  0.70207205  0.68758043    -0.32200
S788        S  0.94769681  0.58562934  0.53016848    -0.32200
H789        H  0.96009084  0.56724458  0.56550748     0.29200
H790        H  0.89758414  0.69321362  0.67531562     0.29200
H791        H  0.98446354  0.66869793  0.68446034     0.19800
H792        H  0.90114765  0.62109638  0.53215875     0.19800
C793        C  0.83006184  0.65339506  0.61300721    -0.06000
C794        C  0.81983650  0.68116038  0.62808115    -0.17200
C795        C  0.78763649  0.67119617  0.65916176     0.11200
C796        C  0.76480063  0.63243363  0.67660270    -0.06000
C797        C  0.77632582  0.60508032  0.66441446    -0.17200
C798        C  0.80820094  0.61490271  0.63223854     0.11200
S799        S  0.77762226  0.70941486  0.67569702    -0.32200
S800        S  0.81848760  0.57677615  0.61651340    -0.32200
H801        H  0.83695134  0.59264328  0.56992405     0.29200
H802        H  0.76485930  0.69581408  0.72553670     0.29200
H803        H  0.83665493  0.71085704  0.61397208     0.19800
H804        H  0.75951573  0.57539452  0.67871907     0.19800
C805        C  0.81569353  0.66704903  0.50378694    -0.06000
C806        C  0.79035535  0.62670584  0.50053756    -0.17200
C807        C  0.75682386  0.61155787  0.47132192     0.11200
C808        C  0.74684231  0.64134166  0.94522233    -0.06000
C809        C  0.77356740  0.68146743  0.94432038    -0.17200
C810        C  0.80822783  0.69674389  0.97184538     0.11200
S811        S  0.72673742  0.55915268  0.46873567    -0.32200
S812        S  0.84045116  0.74879822  0.96914658    -0.32200
H813        H  0.84975114  0.74529010  0.53273076     0.29200
H814        H  0.68633185  0.56738173  0.97232091     0.29200
H815        H  0.79754974  0.60659377  0.51892732     0.19800
H816        H  0.76827215  0.70070278  0.92021090     0.19800
C817        C  0.64461998  0.71409709  0.80339672    -0.06000
C818        C  0.61810296  0.71563769  0.83737042    -0.17200
C819        C  0.62656360  0.75041453  0.86176934     0.11200
C820        C  0.66216182  0.78470412  0.85192853    -0.06000
C821        C  0.68641884  0.78443332  0.81341546    -0.17200
C822        C  0.67769788  0.74967766  0.78845162     0.11200
S823        S  0.59386459  0.74994456  0.90981516    -0.32200
S824        S  0.71252125  0.75168532  0.74318026    -0.32200
H825        H  0.68416405  0.72816297  0.70765420     0.29200
H826        H  0.56489067  0.71067144  0.90431883     0.29200
H827        H  0.59240163  0.68869387  0.84850049     0.19800
H828        H  0.71382848  0.81068235  0.80563414     0.19800
C829        C  0.66230612  0.94177015  0.51964568    -0.06000
C830        C  0.70523429  0.95356057  0.01423158    -0.17200
C831        C  0.71484555  0.92997047  0.98498612     0.11200
C832        C  0.68564095  0.89874940  0.95680931    -0.06000
C833        C  0.64833843  0.89417115  0.95547127    -0.17200
C834        C  0.63672942  0.92138690  0.47964203     0.11200
S835        S  0.76429346  0.93999845  0.98743773    -0.32200
S836        S  0.59527473  0.92725714  0.46716789    -0.32200
H837        H  0.58331236  0.90497891  0.42255928     0.29200
H838        H  0.76340517  0.92101072  0.94225146     0.29200
H839        H  0.72696107  0.97554891  0.03860137     0.19800
H840        H  0.62547225  0.86966793  0.93573318     0.19800
C841        C  0.64596345  0.91343255  0.79111663    -0.06000
C842        C  0.68525404  0.92578553  0.79852629    -0.17200
C843        C  0.69649701  0.90281320  0.82629086     0.11200
C844        C  0.66803884  0.86737246  0.84855223    -0.06000
C845        C  0.62881101  0.85384075  0.83857339    -0.17200
C846        C  0.61743630  0.87669744  0.81056485     0.11200
S847        S  0.74761417  0.91999808  0.83225764    -0.32200
S848        S  0.56613742  0.85848447  0.80346643    -0.32200
H849        H  0.56864507  0.89522097  0.80248181     0.29200
H850        H  0.74375362  0.88336035  0.84315957     0.29200
H851        H  0.70728044  0.95307684  0.78170428     0.19800
H852        H  0.60694805  0.82683435  0.85608827     0.19800
C853        C  0.82136005  0.17997965  0.68187688    -0.06000
C854        C  0.80872087  0.15231843  0.72143944    -0.17200
C855        C  0.76974958  0.12251732  0.72531258     0.11200
C856        C  0.74276117  0.11901437  0.68733052    -0.06000
C857        C  0.75486585  0.14880363  0.65047940    -0.17200
C858        C  0.79350946  0.17928957  0.64763029     0.11200
S859        S  0.75761350  0.08770477  0.77645331    -0.32200
S860        S  0.80786793  0.21461889  0.59630342    -0.32200
H861        H  0.77068609  0.20133869  0.57597975     0.29200
H862        H  0.72853974  0.09443152  0.79585448     0.29200
H863        H  0.82986373  0.15234241  0.74752473     0.19800
H864        H  0.73431908  0.14707715  0.62210688     0.19800
C865        C  0.94950667  0.32639097  0.77578031    -0.06000
C866        C  0.90877480  0.30883461  0.77337434    -0.17200
C867        C  0.88665252  0.27784608  0.73996330     0.11200
C868        C  0.90560489  0.26390545  0.70829708    -0.06000
C869        C  0.94577447  0.27888042  0.71514522    -0.17200
C870        C  0.96779038  0.30991107  0.74767491     0.11200
S871        S  0.83503261  0.25848627  0.73585538    -0.32200
S872        S  0.01910523  0.32710900  0.75123439    -0.32200
H873        H  0.02223552  0.33550668  0.80345590     0.29200
H874        H  0.83168264  0.27826569  0.77795985     0.29200
H875        H  0.89448358  0.32076594  0.79587818     0.19800
H876        H  0.96056329  0.26733626  0.69288436     0.19800
C877        C  0.93489712  0.28535373  0.59885288    -0.06000
C878        C  0.96902860  0.29061636  0.57565273    -0.17200
C879        C  0.99654623  0.32599327  0.04813766     0.11200
C880        C  0.98696979  0.35573210  0.04504862    -0.06000
C881        C  0.95019144  0.34941426  0.56764822    -0.17200
C882        C  0.92617254  0.31587214  0.59627140     0.11200
S883        S  0.03650943  0.32811143  0.01325453    -0.32200
S884        S  0.88196131  0.31078802  0.62245707    -0.32200
H885        H  0.89106598  0.34972508  0.61507875     0.29200
H886        H  0.06162048  0.36819793  0.02051547     0.29200
H887        H  0.97625929  0.26763843  0.57797991     0.19800
H888        H  0.94207641  0.37156276  0.56219107     0.19800
C889        C  0.37637827  0.94976204  0.94217652    -0.06000
C890        C  0.34762678  0.95660739  0.96219564    -0.17200
C891        C  0.30814181  0.92939241  0.95608630     0.11200
C892        C  0.29698263  0.89445618  0.92991627    -0.06000
C893        C  0.32572049  0.88545308  0.91622372    -0.17200
C894        C  0.36523938  0.91274836  0.92192079     0.11200
S895        S  0.27317791  0.94290211  0.97592411    -0.32200
S896        S  0.40005088  0.89983153  0.89930123    -0.32200
H897        H  0.43037218  0.92527623  0.93129412     0.29200
H898        H  0.24199105  0.90439672  0.97946749     0.29200
H899        H  0.35582619  0.98472142  0.97850897     0.19800
H900        H  0.31755753  0.85889372  0.89557586     0.19800
C901        C  0.21407433  0.81626808  0.94475649    -0.06000
C902        C  0.23370414  0.79827996  0.96575251    -0.17200
C903        C  0.21476838  0.76614199  0.99927384     0.11200
C904        C  0.17519010  0.75144819  0.01215920    -0.06000
C905        C  0.15639366  0.77080657  0.99317585    -0.17200
C906        C  0.17557990  0.80340475  0.96098468     0.11200
S907        S  0.23624231  0.73287327  0.50624256    -0.32200
S908        S  0.14925277  0.82750615  0.94192699    -0.32200
H909        H  0.18208866  0.86381724  0.93068313     0.29200
H910        H  0.20235953  0.69604285  0.50656150     0.29200
H911        H  0.26301893  0.80760305  0.95337816     0.19800
H912        H  0.12660344  0.76080462  0.00417562     0.19800
C913        C  0.18251566  0.79706355  0.83600206    -0.06000
C914        C  0.18885501  0.76550514  0.84360535    -0.17200
C915        C  0.16781754  0.73094508  0.81676734     0.11200
C916        C  0.14012645  0.72787086  0.78097593    -0.06000
C917        C  0.13146871  0.75794072  0.77609625    -0.17200
C918        C  0.15225661  0.79251725  0.80329920     0.11200
S919        S  0.17981430  0.69301783  0.82668874    -0.32200
S920        S  0.14020728  0.83025848  0.79164794    -0.32200
H921        H  0.15672673  0.85155316  0.83597675     0.29200
H922        H  0.14382344  0.66198992  0.81114917     0.29200
H923        H  0.21234136  0.76866550  0.86759561     0.19800
H924        H  0.11021807  0.75554771  0.74837889     0.19800
C925        C  0.46247336  0.34679724  0.55587404    -0.06000
C926        C  0.42713301  0.31335927  0.54402729    -0.17200
C927        C  0.41743040  0.27661245  0.56465299     0.11200
C928        C  0.44351204  0.27289587  0.59754153    -0.06000
C929        C  0.48055468  0.30543623  0.60447084    -0.17200
C930        C  0.49027684  0.34225119  0.58403050     0.11200
S931        S  0.36955163  0.23630633  0.55277371    -0.32200
S932        S  0.53720728  0.38400374  0.59727775    -0.32200
H933        H  0.55309384  0.36328750  0.62137268     0.29200
H934        H  0.37911922  0.20710107  0.56218969     0.29200
H935        H  0.40551168  0.31639831  0.52257544     0.19800
H936        H  0.50044163  0.30284931  0.63018817     0.19800
C937        C  0.43053067  0.16624404  0.71226642    -0.06000
C938        C  0.46968161  0.17627876  0.71277393    -0.17200
C939        C  0.48249065  0.15557143  0.74284177     0.11200
C940        C  0.45547441  0.12315793  0.77191653    -0.06000
C941        C  0.41595962  0.11152263  0.76926132    -0.17200
C942        C  0.40319166  0.13306046  0.74047052     0.11200
S943        S  0.53379516  0.17192482  0.74591834    -0.32200
S944        S  0.35206624  0.11724879  0.74387831    -0.32200
H945        H  0.35067569  0.14131870  0.70547703     0.29200
H946        H  0.54646051  0.20430802  0.71296991     0.29200
H947        H  0.49063695  0.20199734  0.69217252     0.19800
H948        H  0.39532400  0.08712880  0.79228963     0.19800
C949        C  0.44440622  0.19257324  0.60094656    -0.06000
C950        C  0.48266881  0.21217215  0.58266834    -0.17200
C951        C  0.49679467  0.19305608  0.55202044     0.11200
C952        C  0.47212401  0.15337233  0.53932436    -0.06000
C953        C  0.43181743  0.13259191  0.05352686    -0.17200
C954        C  0.41933955  0.15368975  0.58605783     0.11200
S955        S  0.54701821  0.22025883  0.53277084    -0.32200
S956        S  0.36872414  0.12892349  0.60378602    -0.32200
H957        H  0.35806414  0.09331909  0.57996214     0.29200
H958        H  0.55344100  0.18840189  0.53478336     0.29200
H959        H  0.50213336  0.24181969  0.59450591     0.19800
H960        H  0.41230344  0.10332376  0.04024417     0.19800
loop_ 
_geom_bond_atom_site_label_1 
_geom_bond_atom_site_label_2 
_geom_bond_distance 
_geom_bond_site_symmetry_2 
_ccdc_geom_bond_type 
N1            C5   1.358       .  A
N1            C2   1.358       .  A
N1          C469   1.439       .  S
C2            C3   1.384       .  A
C2          C448   1.486       .  S
C3            C4   1.378       .  A
C3            H6   1.082       .  S
C4            C5   1.382       .  A
C4            H7   1.082       .  S
C5          C457   1.488       .  S
N8           C12   1.360       .  A
N8            C9   1.361       .  A
N8          C421   1.446       .  S
C9           C10   1.384       .  A
C9          C412   1.482       .  S
C10          C11   1.372       .  A
C10          H13   1.083       .  S
C11          C12   1.381       .  A
C11          H14   1.082       .  S
C12         C433   1.484       .  S
N15          C19   1.362       .  A
N15          C16   1.370       .  A
N15         C388   1.458       .  S
C16          C17   1.386       .  A
C16         C373   1.486       .  S
C17          C18   1.365       .  A
C17          H20   1.083       .  S
C18          C19   1.376       .  A
C18          H21   1.082       .  S
C19         C397   1.485       .  S
N22          C26   1.361       .  A
N22          C23   1.358       .  A
N22         C364   1.438       .  S
C23          C24   1.381       .  A
C23         C340   1.483       .  S
C24          C25   1.374       .  A
C24          H27   1.082       .  S
C25          C26   1.383       .  A
C25          H28   1.082       .  S
C26         C352   1.492       .  S
N29          C33   1.358       .  A
N29          C30   1.365       .  A
N29         C313   1.450       .  S
C30          C31   1.388       .  A
C30         C304   1.489       .  S
C31          C32   1.372   1_554  A
C31          H34   1.083       .  S
C32          C33   1.377   1_556  A
C32         H515   1.082       .  S
C33         C325   1.485   1_554  S
H35         C512   1.082       .  S
N36          C40   1.360       .  A
N36          C37   1.362       .  A
N36         C280   1.448       .  S
C37          C38   1.384       .  A
C37         C265   1.485       .  S
C38          C39   1.373       .  A
C38          H41   1.082       .  S
C39          C40   1.380       .  A
C39          H42   1.082       .  S
C40         C289   1.485       .  S
O43          C59   1.270       .  A
O43         Zn49   2.004       .  S
C44         C400   1.464       .  S
C44          O60   1.269       .  A
C44          O57   1.271   1_655  A
O45          C58   1.272       .  A
O45         Cd52   2.080   1_655  S
O46          C64   1.280       .  A
O46         Cd55   2.096       .  S
O47          C61   1.282       .  A
O47         Cd51   2.112       .  S
O48          C59   1.282   1_455  A
O48         Cd51   2.124       .  S
Zn49         O60   1.975       .  S
Zn49         O62   1.979       .  S
Zn49         O54   1.935   1_655  S
O50          C61   1.279       .  A
O50         Cd55   2.095       .  S
Cd51         O53   2.124       .  S
Cd51         O54   2.013       .  S
Cd52         O56   2.071       .  S
Cd52         O65   2.086       .  S
Cd52         O54   2.017       .  S
O53          C63   1.285       .  A
O54         Cd55   2.019       .  S
Cd55         O57   2.072       .  S
O56          C63   1.276       .  A
C58         C253   1.479       .  S
C58          O62   1.270       .  A
C59         C385   1.494       .  S
C61         C268   1.490       .  S
C63          C87   1.484       .  S
C64         C566   1.481       .  S
C64          O65   1.277       .  A
O66          C82   1.271       .  A
O66         Zn72   2.012       .  S
C67         C436   1.466       .  S
C67          O83   1.270       .  A
C67          O80   1.274       .  A
O68          C81   1.272       .  A
O68         Cd75   2.068       .  S
O69          C87   1.282       .  A
O69         Cd78   2.104       .  S
O70          C84   1.280       .  A
O70         Cd74   2.088       .  S
O71          C82   1.279       .  A
O71         Cd74   2.106       .  S
Zn72         O83   1.989       .  S
Zn72         O85   1.977       .  S
Zn72         O77   1.937       .  S
O73          C84   1.279       .  A
O73         Cd78   2.099       .  S
Cd74         O76   2.103       .  S
Cd74         O77   2.007       .  S
Cd75         O79   2.069       .  S
Cd75         O88   2.087       .  S
Cd75         O77   2.014       .  S
O76          C86   1.280       .  A
O77         Cd78   2.016       .  S
Cd78         O80   2.084       .  S
O79          C86   1.276       .  A
C81         C241   1.472       .  S
C81          O85   1.269       .  A
C82         C904   1.486       .  S
C84         C301   1.490   1_455  S
C86         C544   1.477   1_554  S
C87          O88   1.276       .  A
O89         C105   1.269       .  A
O89         Zn95   1.982       .  S
C90         C952   1.483       .  S
C90         O106   1.270       .  A
C90         O103   1.277       .  A
O91         C104   1.273       .  A
O91         Cd98   2.079       .  S
O92         C110   1.279       .  A
O92        Cd101   2.089       .  S
O93         C107   1.282       .  A
O93         Cd97   2.106   1_565  S
O94         C105   1.278       .  A
O94         Cd97   2.108       .  S
Zn95        O106   2.011       .  S
Zn95        O108   1.968       .  S
Zn95        O100   1.939       .  S
O96         C107   1.277   1_545  A
O96        Cd101   2.086       .  S
Cd97         O99   2.117       .  S
Cd97        O100   2.019       .  S
Cd98        O102   2.095       .  S
Cd98        O111   2.083       .  S
Cd98        O100   2.017       .  S
O99         C109   1.282       .  A
O100       Cd101   2.009       .  S
Cd101       O103   2.094       .  S
O102        C109   1.278       .  A
C104        C229   1.461       .  S
C104        O108   1.267       .  A
C105        C460   1.475       .  S
C107        C409   1.487       .  S
C109        C133   1.491       .  S
C110        C612   1.476       .  S
C110        O111   1.278       .  A
O112        C128   1.267       .  A
O112       Zn118   1.983       .  S
C113        C361   1.473       .  S
C113        O129   1.269       .  A
C113        O126   1.278       .  A
O114        C127   1.274       .  A
O114       Cd121   2.087       .  S
O115        C133   1.281       .  A
O115       Cd124   2.109       .  S
O116        C130   1.282       .  A
O116       Cd120   2.094       .  S
O117        C128   1.276       .  A
O117       Cd120   2.114   1_565  S
Zn118       O129   1.981       .  S
Zn118       O131   1.956       .  S
Zn118       O123   1.925       .  S
O119        C130   1.278       .  A
O119       Cd124   2.089       .  S
Cd120       O122   2.094       .  S
Cd120       O123   2.015   1_545  S
Cd121       O125   2.076   1_565  S
Cd121       O134   2.105   1_565  S
Cd121       O123   2.021       .  S
O122        C132   1.280       .  A
O123       Cd124   2.008   1_565  S
Cd124       O126   2.095   1_545  S
O125        C132   1.277       .  A
C127        C217   1.472       .  S
C127        O131   1.267       .  A
C128        C349   1.478       .  S
C130        C376   1.492       .  S
C132        C590   1.476       .  S
C133        O134   1.280       .  A
C135        N136   1.356       .  A
C135        N140   1.361       .  A
C135        C208   1.469       .  S
N136        C137   1.357       .  A
C137        N138   1.352       .  A
C137        C232   1.466       .  S
N138        C139   1.356       .  A
C139        N140   1.358       .  A
C139        C256   1.478       .  S
C141        N142   1.360       .  A
C141        N146   1.358       .  A
C141        C193   1.473       .  S
N142        C143   1.356       .  A
C143        N144   1.354       .  A
C143        C244   1.469       .  S
N144        C145   1.352       .  A
C145        N146   1.360       .  A
C145        C220   1.473       .  S
O147        C163   1.268   1_554  A
O147       Zn153   1.992       .  S
C148        C292   1.462       .  S
C148        O164   1.269       .  A
C148        O161   1.272       .  A
O149        C162   1.275       .  A
O149       Cd156   2.099       .  S
O150        C168   1.276       .  A
O150       Cd159   2.074       .  S
O151        C165   1.283       .  A
O151       Cd155   2.125   1_554  S
O152        C163   1.279       .  A
O152       Cd155   2.111       .  S
Zn153       O164   1.981       .  S
Zn153       O166   1.967       .  S
Zn153       O158   1.924       .  S
O154        C165   1.275       .  A
O154       Cd159   2.061       .  S
Cd155       O157   2.113       .  S
Cd155       O158   2.019   1_556  S
Cd156       O160   2.072   1_554  S
Cd156       O169   2.105       .  S
Cd156       O158   2.013       .  S
O157        C167   1.282       .  A
O158       Cd159   1.999       .  S
Cd159       O161   2.074       .  S
O160        C167   1.279       .  A
C162        C196   1.473       .  S
C162        O166   1.268       .  A
C163        C757   1.476       .  S
C165        C445   1.487       .  S
C167        C671   1.479       .  S
C168        C190   1.481       .  S
C168        O169   1.279       .  A
O170        C186   1.269       .  A
O170       Zn176   1.990       .  S
C171        C328   1.465       .  S
C171        O187   1.269       .  A
C171        O184   1.272       .  A
O172        C185   1.276       .  A
O172       Cd179   2.096       .  S
O173        C191   1.276       .  A
O173       Cd182   2.077       .  S
O174        C188   1.281       .  A
O174       Cd178   2.123       .  S
O175        C186   1.282       .  A
O175       Cd178   2.124       .  S
Zn176       O187   1.984       .  S
Zn176       O189   1.965       .  S
Zn176       O181   1.930       .  S
O177        C188   1.274       .  A
O177       Cd182   2.050       .  S
Cd178       O180   2.113       .  S
Cd178       O181   2.028       .  S
Cd179       O183   2.081       .  S
Cd179       O192   2.114       .  S
Cd179       O181   2.021       .  S
O180        C190   1.283       .  A
O181       Cd182   1.998       .  S
Cd182       O184   2.073       .  S
O183        C190   1.280       .  A
C185        C205   1.472       .  S
C185        O189   1.268       .  A
C186        C316   1.489       .  S
C188        C337   1.484       .  S
C191        C647   1.486       .  S
C191        O192   1.279       .  A
C193        C194   1.406       .  A
C193        C198   1.410       .  A
C194        C195   1.404       .  A
C194        H203   1.084       .  S
C195        C196   1.413       .  A
C195        S199   1.802   1_554  S
C196        C197   1.403       .  A
C197        C198   1.392       .  A
C197        H204   1.085       .  S
C198        S200   1.805       .  S
S199        H202   1.406       .  S
S200        H201   1.407       .  S
C205        C206   1.404       .  A
C205        C210   1.413       .  A
C206        C207   1.394       .  A
C206        H215   1.084       .  S
C207        C208   1.407       .  A
C207        S211   1.804       .  S
C208        C209   1.405       .  A
C209        C210   1.403       .  A
C209        H216   1.084       .  S
C210        S212   1.803       .  S
S211        H214   1.407       .  S
S212        H213   1.406       .  S
C217        C218   1.406       .  A
C217        C222   1.409       .  A
C218        C219   1.393       .  A
C218        H227   1.084       .  S
C219        C220   1.409       .  A
C219        S223   1.804       .  S
C220        C221   1.408       .  A
C221        C222   1.399       .  A
C221        H228   1.084       .  S
C222        S224   1.799       .  S
S223        H226   1.407       .  S
S224        H225   1.407       .  S
C229        C230   1.402       .  A
C229        C234   1.410       .  A
C230        C231   1.395       .  A
C230        H239   1.084       .  S
C231        C232   1.410       .  A
C231        S235   1.804       .  S
C232        C233   1.403       .  A
C233        C234   1.397       .  A
C233        H240   1.084       .  S
C234        S236   1.803       .  S
S235        H238   1.407       .  S
S236        H237   1.404       .  S
C241        C242   1.405       .  A
C241        C246   1.413       .  A
C242        C243   1.400       .  A
C242        H251   1.084       .  S
C243        C244   1.413       .  A
C243        S247   1.802       .  S
C244        C245   1.401       .  A
C245        C246   1.391       .  A
C245        H252   1.085       .  S
C246        S248   1.805       .  S
S247        H250   1.406       .  S
S248        H249   1.407       .  S
C253        C254   1.403       .  A
C253        C258   1.414       .  A
C254        C255   1.392       .  A
C254        H263   1.084       .  S
C255        C256   1.413       .  A
C255        S259   1.805       .  S
C256        C257   1.406       .  A
C257        C258   1.403       .  A
C257        H264   1.084       .  S
C258        S260   1.799       .  S
S259        H262   1.407       .  S
S260        H261   1.407       .  S
C265        C266   1.407       .  A
C265        C270   1.409       .  A
C266        C267   1.409       .  A
C266        H275   1.083       .  S
C267        C268   1.410       .  A
C267        S271   1.805       .  S
C268        C269   1.407       .  A
C269        C270   1.411       .  A
C269        H276   1.083       .  S
C270        S272   1.805       .  S
S271        H274   1.407       .  S
S272        H273   1.407       .  S
C277        C278   1.401       .  A
C277        C282   1.420       .  A
C277        C643   1.489       .  S
C278        C279   1.405       .  A
C278        H287   1.083       .  S
C279        C280   1.414       .  A
C279        S283   1.804       .  S
C280        C281   1.402       .  A
C281        C282   1.408       .  A
C281        H288   1.083       .  S
C282        S764   1.803       .  S
S283        H286   1.407       .  S
S284        C762   1.804       .  S
S284        H285   1.406       .  S
C289        C290   1.404       .  A
C289        C294   1.418       .  A
C290        C291   1.392       .  A
C290        H299   1.080       .  S
C291        C292   1.406       .  A
C291        S295   1.805       .  S
C292        C293   1.401       .  A
C293        C294   1.402       .  A
C293        H300   1.084       .  S
C294        S296   1.804       .  S
S295        H298   1.407       .  S
S296        H297   1.403       .  S
C301        C302   1.409       .  A
C301        C306   1.413       .  A
C302        C303   1.410       .  A
C302        H311   1.084       .  S
C303        C304   1.413       .  A
C303        S307   1.803       .  S
C304        C305   1.408       .  A
C305        C306   1.399       .  A
C305        H312   1.084       .  S
C306        S308   1.804       .  S
S307        H310   1.402       .  S
S308        H309   1.407       .  S
C313        C314   1.410       .  A
C313        C318   1.411       .  A
C314        C315   1.400       .  A
C314        H323   1.083       .  S
C315        C316   1.410       .  A
C315        S319   1.803       .  S
C316        C317   1.411       .  A
C317        C318   1.406       .  A
C317        H324   1.084       .  S
C318        S320   1.799       .  S
S319        H322   1.407       .  S
S320        H321   1.404       .  S
C325        C326   1.404   1_556  A
C325        C810   1.415       .  A
C326        C327   1.393   1_554  A
C326        H335   1.082       .  S
C327        C808   1.408       .  A
C327        S331   1.804       .  S
C328        C329   1.402       .  A
C328        C807   1.408       .  A
C329        C330   1.401       .  A
C329        H336   1.084       .  S
C330        C805   1.415       .  A
C330        S332   1.803       .  S
S331        H814   1.407       .  S
S332        H813   1.405       .  S
H333        S812   1.406   1_554  S
H334        S811   1.407       .  S
C337        C338   1.405       .  A
C337        C342   1.415       .  A
C338        C339   1.404       .  A
C338        H347   1.083       .  S
C339        C340   1.410       .  A
C339        S343   1.808       .  S
C340        C341   1.404       .  A
C341        C342   1.407       .  A
C341        H348   1.084       .  S
C342        S344   1.801       .  S
S343        H346   1.407       .  S
S344        H345   1.405       .  S
C349        C354   1.409   1_554  A
C349        C830   1.403       .  A
C350        C351   1.402       .  A
C350        C829   1.400       .  A
C350        H359   1.084       .  S
C351        C352   1.417       .  A
C351        S355   1.804       .  S
C352        C353   1.406       .  A
C353        C834   1.405       .  A
C353        H360   1.081       .  S
C354        C833   1.400       .  A
C354        S356   1.808       .  S
S355        H358   1.405       .  S
S356        H357   1.407       .  S
C361        C362   1.401       .  A
C361        C366   1.416       .  A
C362        C363   1.399       .  A
C362        H371   1.084       .  S
C363        C364   1.412       .  A
C363        S367   1.801       .  S
C364        C365   1.400       .  A
C365        C366   1.399       .  A
C365        H372   1.082       .  S
C366        S368   1.805       .  S
S367        H370   1.407       .  S
S368        H369   1.407       .  S
C373        C374   1.403       .  A
C373        C378   1.417       .  A
C374        C375   1.407       .  A
C374        H383   1.083       .  S
C375        C376   1.419       .  A
C375        S379   1.800       .  S
C376        C377   1.402       .  A
C377        C378   1.403       .  A
C377        H384   1.082       .  S
C378        S380   1.807       .  S
S379        H382   1.407       .  S
S380        H381   1.407       .  S
C385        C386   1.411       .  A
C385        C390   1.410       .  A
C386        C387   1.412       .  A
C386        H395   1.082       .  S
C387        C388   1.413       .  A
C387        S391   1.801       .  S
C388        C389   1.412       .  A
C389        C390   1.400       .  A
C389        H396   1.083       .  S
C390        S392   1.803   1_655  S
S391        H394   1.406       .  S
S392        H393   1.407       .  S
C397        C398   1.406       .  A
C397        C402   1.413       .  A
C398        C879   1.398       .  A
C398        H407   1.084       .  S
C399        C400   1.408       .  A
C399        C878   1.397       .  A
C399        S403   1.801   1_655  S
C400        C881   1.400       .  A
C401        C402   1.398       .  A
C401        C880   1.400       .  A
C401        H408   1.084       .  S
C402        S404   1.804       .  S
S403        H406   1.405       .  S
S404        H405   1.407       .  S
C409        C410   1.405       .  A
C409        C414   1.413       .  A
C410        C411   1.403       .  A
C410        H419   1.084       .  S
C411        C412   1.411       .  A
C411        S415   1.801       .  S
C412        C413   1.406       .  A
C413        C414   1.406       .  A
C413        H420   1.084       .  S
C414        S416   1.802       .  S
S415        H418   1.406       .  S
S416        H417   1.407       .  S
C421        C422   1.403       .  A
C421        C426   1.417       .  A
C422        C423   1.408       .  A
C422        H431   1.082       .  S
C423        C424   1.418       .  A
C423        S907   1.803       .  S
C424        C425   1.399       .  A
C424        C562   1.485       .  S
C425        C426   1.400       .  A
C425        H432   1.084       .  S
C426        S428   1.803       .  S
S427        C903   1.803   1_554  S
S427        H430   1.406       .  S
S428        H429   1.404       .  S
C433        C434   1.404       .  A
C433        C438   1.417       .  A
C434        C435   1.394       .  A
C434        H443   1.081       .  S
C435        C436   1.407       .  A
C435        S439   1.804       .  S
C436        C437   1.401       .  A
C437        C438   1.402       .  A
C437        H444   1.084       .  S
C438        S440   1.805       .  S
S439        H442   1.407       .  S
S440        H441   1.402       .  S
C445        C446   1.405       .  A
C445        C450   1.413       .  A
C446        C447   1.406       .  A
C446        H455   1.084       .  S
C447        C448   1.414       .  A
C447        S451   1.802       .  S
C448        C449   1.403       .  A
C449        C450   1.407       .  A
C449        H456   1.083       .  S
C450        S452   1.806       .  S
S451        H454   1.406       .  S
S452        H453   1.407       .  S
C457        C458   1.404       .  A
C457        C462   1.419       .  A
C458        C459   1.401       .  A
C458        H467   1.081       .  S
C459        C460   1.410       .  A
C459        S463   1.809       .  S
C460        C461   1.401       .  A
C461        C462   1.405       .  A
C461        H468   1.084       .  S
C462        S464   1.805       .  S
S463        H466   1.407       .  S
S464        H465   1.400       .  S
C469        C470   1.401       .  A
C469        C474   1.410       .  A
C470        C471   1.403       .  A
C470        H479   1.084       .  S
C471        C472   1.416       .  A
C471        S475   1.804       .  S
C472        C953   1.399       .  A
C472        C570   1.474       .  S
C473        C952   1.400       .  A
C473        C954   1.401       .  A
C473        H480   1.083       .  S
C474        C953   1.399       .  A
C474        S476   1.803       .  S
S475        H478   1.406       .  S
S476        H477   1.406       .  S
N481        C485   1.360       .  A
N481        C482   1.360       .  A
N481        C949   1.443       .  S
C482        C483   1.384       .  A
C482        C928   1.486       .  S
C483        C484   1.376       .  A
C483        H486   1.082       .  S
C484        C485   1.381       .  A
C484        H487   1.082       .  S
C485        C937   1.484       .  S
N488        C492   1.360       .  A
N488        C489   1.359       .  A
N488        C901   1.447       .  S
C489        C490   1.383       .  A
C489        C892   1.477       .  S
C490        C491   1.370       .  A
C490        H493   1.083       .  S
C491        C492   1.381       .  A
C491        H494   1.082       .  S
C492        C913   1.480       .  S
N495        C499   1.361       .  A
N495        C496   1.367       .  A
N495        C868   1.456       .  S
C496        C497   1.387       .  A
C496        C853   1.486       .  S
C497        C498   1.365       .  A
C497        H500   1.083       .  S
C498        C499   1.376       .  A
C498        H501   1.082       .  S
C499        C877   1.485       .  S
N502        C506   1.359       .  A
N502        C503   1.356       .  A
N502        C844   1.434       .  S
C503        C504   1.383       .  A
C503        C820   1.486       .  S
C504        C505   1.379       .  A
C504        H507   1.082       .  S
C505        C506   1.382       .  A
C505        H508   1.082   1_556  S
C506        C832   1.491       .  S
N509        C513   1.357       .  A
N509        C510   1.363       .  A
N509        C793   1.447       .  S
C510        C511   1.387       .  A
C510        C784   1.486       .  S
C511        C512   1.372       .  A
C511        H514   1.083       .  S
C512        C513   1.376       .  A
C513        C805   1.481       .  S
N516        C520   1.355       .  A
N516        C517   1.358       .  A
N516        C760   1.442       .  S
C517        C518   1.388       .  A
C517        C745   1.485       .  S
C518        C519   1.375       .  A
C518        H521   1.083       .  S
C519        C520   1.377       .  A
C519        H522   1.082       .  S
C520        C769   1.478       .  S
O523        C539   1.270       .  A
O523       Zn529   2.003       .  S
C524        C880   1.465   1_455  S
C524        O540   1.269   1_454  A
C524        O537   1.272       .  A
O525        C538   1.273       .  A
O525       Cd532   2.077   1_655  S
O526        C544   1.278       .  A
O526       Cd535   2.082       .  S
O527        C541   1.279       .  A
O527       Cd531   2.087       .  S
O528        C539   1.279   1_455  A
O528       Cd531   2.103       .  S
Zn529       O540   1.974       .  S
Zn529       O542   1.978       .  S
Zn529       O534   1.931   1_655  S
O530        C541   1.279       .  A
O530       Cd535   2.092       .  S
Cd531       O533   2.098       .  S
Cd531       O534   2.002       .  S
Cd532       O536   2.079       .  S
Cd532       O545   2.090       .  S
Cd532       O534   2.013       .  S
O533        C543   1.280       .  A
O534       Cd535   2.016       .  S
Cd535       O537   2.079   1_556  S
O536        C543   1.278       .  A
C538        C733   1.478       .  S
C538        O542   1.270       .  A
C539        C865   1.488       .  S
C541        C748   1.491       .  S
C543        C567   1.478       .  S
C544        O545   1.277       .  A
O546        C562   1.271       .  A
O546       Zn552   2.011       .  S
C547        C916   1.461       .  S
C547        O563   1.270       .  A
C547        O560   1.271       .  A
O548        C561   1.272       .  A
O548       Cd555   2.071       .  S
O549        C567   1.278       .  A
O549       Cd558   2.084       .  S
O550        C564   1.282       .  A
O550       Cd554   2.105       .  S
O551        C562   1.280       .  A
O551       Cd554   2.112       .  S
Zn552       O563   1.987       .  S
Zn552       O565   1.976       .  S
Zn552       O557   1.938       .  S
O553        C564   1.277       .  A
O553       Cd558   2.081       .  S
Cd554       O556   2.109       .  S
Cd554       O557   2.009       .  S
Cd555       O559   2.079       .  S
Cd555       O568   2.090       .  S
Cd555       O557   2.014       .  S
O556        C566   1.282       .  A
O557       Cd558   2.014       .  S
Cd558       O560   2.071       .  S
O559        C566   1.277       .  A
C561        C721   1.469       .  S
C561        O565   1.269       .  A
C564        C781   1.490   1_455  S
C567        O568   1.277       .  A
O569        C585   1.268       .  A
O569       Zn575   1.977       .  S
C570        O586   1.269   1_554  A
C570        O583   1.276       .  A
O571        C584   1.272       .  A
O571       Cd578   2.075       .  S
O572        C590   1.279       .  A
O572       Cd581   2.090   1_554  S
O573        C587   1.281       .  A
O573       Cd577   2.096   1_565  S
O574        C585   1.277       .  A
O574       Cd577   2.108       .  S
Zn575       O586   1.996       .  S
Zn575       O588   1.958       .  S
Zn575       O580   1.931       .  S
O576        C587   1.277   1_545  A
O576       Cd581   2.081       .  S
Cd577       O579   2.106       .  S
Cd577       O580   2.016       .  S
Cd578       O582   2.085       .  S
Cd578       O591   2.081       .  S
Cd578       O580   2.014       .  S
O579        C589   1.280       .  A
O580       Cd581   2.005       .  S
Cd581       O583   2.086   1_556  S
O582        C589   1.277       .  A
C584        C709   1.460       .  S
C584        O588   1.266       .  A
C585        C940   1.475       .  S
C587        C889   1.481       .  S
C589        C613   1.484       .  S
C590        O591   1.277   1_554  A
O592        C608   1.267       .  A
O592       Zn598   1.978       .  S
C593        C841   1.468       .  S
C593        O609   1.267       .  A
C593        O606   1.277       .  A
O594        C607   1.273       .  A
O594       Cd601   2.083       .  S
O595        C613   1.280       .  A
O595       Cd604   2.097       .  S
O596        C610   1.283       .  A
O596       Cd600   2.104       .  S
O597        C608   1.277       .  A
O597       Cd600   2.113   1_565  S
Zn598       O609   1.975       .  S
Zn598       O611   1.950       .  S
Zn598       O603   1.923       .  S
O599        C610   1.276       .  A
O599       Cd604   2.080       .  S
Cd600       O602   2.089       .  S
Cd600       O603   2.014   1_545  S
Cd601       O605   2.077   1_565  S
Cd601       O614   2.095   1_565  S
Cd601       O603   2.018       .  S
O602        C612   1.279       .  A
O603       Cd604   2.005   1_565  S
Cd604       O606   2.095   1_545  S
O605        C612   1.277       .  A
C607        C697   1.469       .  S
C607        O611   1.266       .  A
C608        C829   1.475       .  S
C610        C856   1.497       .  S
C613        O614   1.279       .  A
C615        N616   1.357       .  A
C615        N620   1.360       .  A
C615        C688   1.474       .  S
N616        C617   1.358       .  A
C617        N618   1.353       .  A
C617        C712   1.468       .  S
N618        C619   1.355       .  A
C619        N620   1.357       .  A
C619        C736   1.476       .  S
C621        N622   1.357       .  A
C621        N626   1.354       .  A
C621        C673   1.465       .  S
N622        C623   1.357       .  A
C623        N624   1.356       .  A
C623        C724   1.468       .  S
N624        C625   1.355       .  A
C625        N626   1.358       .  A
C625        C700   1.476       .  S
O627        C643   1.270       .  A
O627       Zn633   1.999       .  S
C628        C772   1.467       .  S
C628        O644   1.271       .  A
C628        O641   1.272       .  A
O629        C642   1.275       .  A
O629       Cd636   2.091       .  S
O630        C648   1.275       .  A
O630       Cd639   2.075       .  S
O631        C645   1.284       .  A
O631       Cd635   2.134       .  S
O632        C643   1.282       .  A
O632       Cd635   2.129       .  S
Zn633       O644   1.991       .  S
Zn633       O646   1.974       .  S
Zn633       O638   1.939       .  S
O634        C645   1.274       .  A
O634       Cd639   2.057       .  S
Cd635       O637   2.124       .  S
Cd635       O638   2.027       .  S
Cd636       O640   2.084       .  S
Cd636       O649   2.114       .  S
Cd636       O638   2.020       .  S
O637        C647   1.284       .  A
O638       Cd639   2.003       .  S
Cd639       O641   2.071       .  S
O640        C647   1.280       .  A
C642        C676   1.465       .  S
C642        O646   1.268       .  A
C645        C925   1.489       .  S
C648        C670   1.486       .  S
C648        O649   1.279       .  A
O650        C666   1.267       .  A
O650       Zn656   1.977       .  S
C651        C808   1.465       .  S
C651        O667   1.268       .  A
C651        O664   1.271       .  A
O652        C665   1.277       .  A
O652       Cd659   2.105       .  S
O653        C671   1.275       .  A
O653       Cd662   2.060       .  S
O654        C668   1.283       .  A
O654       Cd658   2.134       .  S
O655        C666   1.282       .  A
O655       Cd658   2.122       .  S
Zn656       O667   1.985       .  S
Zn656       O669   1.954       .  S
Zn656       O661   1.925       .  S
O657        C668   1.274       .  A
O657       Cd662   2.049       .  S
Cd658       O660   2.119       .  S
Cd658       O661   2.024       .  S
Cd659       O663   2.088       .  S
Cd659       O672   2.111       .  S
Cd659       O661   2.022       .  S
O660        C670   1.283       .  A
O661       Cd662   1.995       .  S
Cd662       O664   2.078       .  S
O663        C670   1.281       .  A
C665        C685   1.476       .  S
C665        O669   1.267       .  A
C666        C796   1.482       .  S
C668        C817   1.494       .  S
C671        O672   1.280       .  A
C673        C674   1.403       .  A
C673        C678   1.408       .  A
C674        C675   1.402       .  A
C674        H683   1.084       .  S
C675        C676   1.412       .  A
C675        S679   1.803       .  S
C676        C677   1.402       .  A
C677        C678   1.395       .  A
C677        H684   1.085       .  S
C678        S680   1.804       .  S
S679        H682   1.404       .  S
S680        H681   1.406       .  S
C685        C686   1.405       .  A
C685        C690   1.412       .  A
C686        C687   1.392       .  A
C686        H695   1.085       .  S
C687        C688   1.410       .  A
C687        S691   1.805       .  S
C688        C689   1.407       .  A
C689        C690   1.404       .  A
C689        H696   1.084       .  S
C690        S692   1.801       .  S
S691        H694   1.407       .  S
S692        H693   1.406       .  S
C697        C698   1.404       .  A
C697        C702   1.408       .  A
C698        C699   1.391       .  A
C698        H707   1.085       .  S
C699        C700   1.412       .  A
C699        S703   1.805       .  S
C700        C701   1.409       .  A
C701        C702   1.399       .  A
C701        H708   1.083       .  S
C702        S704   1.799       .  S
S703        H706   1.407       .  S
S704        H705   1.406       .  S
C709        C710   1.401       .  A
C709        C714   1.408       .  A
C710        C711   1.393       .  A
C710        H719   1.085       .  S
C711        C712   1.410       .  A
C711        S715   1.804       .  S
C712        C713   1.405       .  A
C713        C714   1.398       .  A
C713        H720   1.084       .  S
C714        S716   1.801       .  S
S715        H718   1.407       .  S
S716        H717   1.405       .  S
C721        C722   1.402       .  A
C721        C726   1.412       .  A
C722        C723   1.398       .  A
C722        H731   1.084       .  S
C723        C724   1.413       .  A
C723        S727   1.803       .  S
C724        C725   1.402       .  A
C725        C726   1.394       .  A
C725        H732   1.084       .  S
C726        S728   1.805       .  S
S727        H730   1.407       .  S
S728        H729   1.407       .  S
C733        C734   1.404       .  A
C733        C738   1.414       .  A
C734        C735   1.394       .  A
C734        H743   1.084       .  S
C735        C736   1.413       .  A
C735        S739   1.805       .  S
C736        C737   1.405       .  A
C737        C738   1.400       .  A
C737        H744   1.083       .  S
C738        S740   1.799       .  S
S739        H742   1.407       .  S
S740        H741   1.407       .  S
C745        C746   1.405       .  A
C745        C750   1.407       .  A
C746        C747   1.403       .  A
C746        H755   1.083       .  S
C747        C748   1.413       .  A
C747        S751   1.809       .  S
C748        C749   1.410       .  A
C749        C750   1.410       .  A
C749        H756   1.083       .  S
C750        S752   1.802       .  S
S751        H754   1.407       .  S
S752        H753   1.407       .  S
C757        C758   1.399       .  A
C757        C762   1.415       .  A
C758        C759   1.402       .  A
C758        H767   1.083       .  S
C759        C760   1.413       .  A
C759        S763   1.805       .  S
C760        C761   1.402       .  A
C761        C762   1.405       .  A
C761        H768   1.082       .  S
S763        H766   1.407       .  S
S764        H765   1.407       .  S
C769        C770   1.402       .  A
C769        C774   1.414       .  A
C770        C771   1.392       .  A
C770        H779   1.082       .  S
C771        C772   1.410       .  A
C771        S775   1.806       .  S
C772        C773   1.403       .  A
C773        C774   1.402       .  A
C773        H780   1.084       .  S
C774        S776   1.802       .  S
S775        H778   1.407       .  S
S776        H777   1.401       .  S
C781        C782   1.410       .  A
C781        C786   1.412       .  A
C782        C783   1.408       .  A
C782        H791   1.083       .  S
C783        C784   1.410       .  A
C783        S787   1.802       .  S
C784        C785   1.407       .  A
C785        C786   1.401       .  A
C785        H792   1.084       .  S
C786        S788   1.803       .  S
S787        H790   1.405       .  S
S788        H789   1.407       .  S
C793        C794   1.409       .  A
C793        C798   1.412       .  A
C794        C795   1.399       .  A
C794        H803   1.083       .  S
C795        C796   1.408       .  A
C795        S799   1.803       .  S
C796        C797   1.410       .  A
C797        C798   1.407       .  A
C797        H804   1.084       .  S
C798        S800   1.801       .  S
S799        H802   1.407       .  S
S800        H801   1.400       .  S
C805        C806   1.402       .  A
C806        C807   1.392       .  A
C806        H815   1.081       .  S
C807        S811   1.806       .  S
C808        C809   1.402       .  A
C809        C810   1.402       .  A
C809        H816   1.084       .  S
C810        S812   1.803       .  S
C817        C818   1.408       .  A
C817        C822   1.417       .  A
C818        C819   1.405       .  A
C818        H827   1.083       .  S
C819        C820   1.410       .  A
C819        S823   1.808       .  S
C820        C821   1.404       .  A
C821        C822   1.409       .  A
C821        H828   1.084       .  S
C822        S824   1.799       .  S
S823        H826   1.407       .  S
S824        H825   1.407       .  S
C829        C834   1.410       .  A
C830        C831   1.408   1_554  A
C830        H839   1.084       .  S
C831        C832   1.417       .  A
C831        S835   1.804       .  S
C832        C833   1.403       .  A
C833        H840   1.080       .  S
C834        S836   1.806       .  S
S835        H838   1.404       .  S
S836        H837   1.407       .  S
C841        C842   1.400       .  A
C841        C846   1.414       .  A
C842        C843   1.397       .  A
C842        H851   1.084       .  S
C843        C844   1.410       .  A
C843        S847   1.801       .  S
C844        C845   1.400       .  A
C845        C846   1.400       .  A
C845        H852   1.083       .  S
C846        S848   1.804       .  S
S847        H850   1.406       .  S
S848        H849   1.406       .  S
C853        C854   1.400       .  A
C853        C858   1.417       .  A
C854        C855   1.406       .  A
C854        H863   1.085       .  S
C855        C856   1.422       .  A
C855        S859   1.799       .  S
C856        C857   1.404       .  A
C857        C858   1.404       .  A
C857        H864   1.083       .  S
C858        S860   1.807       .  S
S859        H862   1.408       .  S
S860        H861   1.406       .  S
C865        C866   1.410       .  A
C865        C870   1.409       .  A
C866        C867   1.412       .  A
C866        H875   1.082       .  S
C867        C868   1.412       .  A
C867        S871   1.802       .  S
C868        C869   1.412       .  A
C869        C870   1.397       .  A
C869        H876   1.083       .  S
C870        S872   1.804   1_655  S
S871        H874   1.407       .  S
S872        H873   1.407       .  S
C877        C878   1.406       .  A
C877        C882   1.414       .  A
C878        H887   1.083       .  S
C879        C880   1.408       .  A
C879        S883   1.802   1_655  S
C881        C882   1.398       .  A
C881        H888   1.083       .  S
C882        S884   1.804       .  S
S883        H886   1.405       .  S
S884        H885   1.407       .  S
C889        C890   1.405       .  A
C889        C894   1.412       .  A
C890        C891   1.402       .  A
C890        H899   1.084       .  S
C891        C892   1.410       .  A
C891        S895   1.801       .  S
C892        C893   1.405       .  A
C893        C894   1.403       .  A
C893        H900   1.084       .  S
C894        S896   1.803       .  S
S895        H898   1.406       .  S
S896        H897   1.407       .  S
C901        C902   1.403       .  A
C901        C906   1.416       .  A
C902        C903   1.408       .  A
C902        H911   1.082       .  S
C903        C904   1.420   1_556  A
C904        C905   1.400   1_554  A
C905        C906   1.399       .  A
C905        H912   1.084   1_556  S
C906        S908   1.802       .  S
S907        H910   1.406       .  S
S908        H909   1.405       .  S
C913        C914   1.404       .  A
C913        C918   1.416       .  A
C914        C915   1.394       .  A
C914        H923   1.082       .  S
C915        C916   1.407       .  A
C915        S919   1.804       .  S
C916        C917   1.399       .  A
C917        C918   1.399       .  A
C917        H924   1.084       .  S
C918        S920   1.805       .  S
S919        H922   1.406       .  S
S920        H921   1.402       .  S
C925        C926   1.405       .  A
C925        C930   1.414       .  A
C926        C927   1.407       .  A
C926        H935   1.083       .  S
C927        C928   1.412       .  A
C927        S931   1.801       .  S
C928        C929   1.404       .  A
C929        C930   1.408       .  A
C929        H936   1.083       .  S
C930        S932   1.807       .  S
S931        H934   1.405       .  S
S932        H933   1.407       .  S
C937        C938   1.402       .  A
C937        C942   1.418       .  A
C938        C939   1.400       .  A
C938        H947   1.080       .  S
C939        C940   1.410       .  A
C939        S943   1.809       .  S
C940        C941   1.402       .  A
C941        C942   1.406       .  A
C941        H948   1.081       .  S
C942        S944   1.807       .  S
S943        H946   1.407       .  S
S944        H945   1.401       .  S
C949        C950   1.402       .  A
C949        C954   1.412       .  A
C950        C951   1.406       .  A
C950        H959   1.083       .  S
C951        C952   1.418       .  A
C951        S955   1.803       .  S
C953        H960   1.084       .  S
C954        S956   1.804       .  S
S955        H958   1.406       .  S
S956        H957   1.406       .  S
