geometry optimzed in LAMMPS
_audit_creation_date              2020-11-30 
_audit_creation_method            'lammps2cif' 
_symmetry_space_group_name_H-M    'P1' 
_symmetry_Int_Tables_number       1 
_symmetry_cell_setting            triclinic 
loop_ 
_symmetry_equiv_pos_as_xyz 
  x,y,z 
_cell_length_a                    39.54814071 
_cell_length_b                    41.10572422757013 
_cell_length_c                    26.24742118857006 
_cell_angle_alpha                 85.08506287008082 
_cell_angle_beta                  89.92027727727657 
_cell_angle_gamma                 87.29236175425405 
loop_ 
_atom_site_label 
_atom_site_type_symbol 
_atom_site_fract_x 
_atom_site_fract_y 
_atom_site_fract_z 
_atom_site_charge 
O1          O  0.76334384  0.10378523  0.08836966    -0.81500
O2          O  0.77308317  0.09659475  0.85958786    -0.66200
O3          O  0.77296650  0.07036289  0.00187412    -1.12800
C4          C  0.88655768  0.10125115  0.99216734     1.05400
O5          O  0.81899399  0.06482138  0.85387348    -0.79400
O6          O  0.85199497  0.03481190  0.93501741    -0.67000
Ni7        Ni  0.73607975  0.08092038  0.04422255     1.34900
C8          C  0.84839575  0.02433380  0.98139271     0.84100
O9          O  0.72552239  0.06958938  0.92229614    -0.80000
O10         O  0.70663110  0.05861320  0.00266990    -0.90200
C11         C  0.79544395  0.08317758  0.83248874     0.83700
O12         O  0.72136225  0.12186022  0.00990538    -0.68400
O13         O  0.88493031  0.09076088  0.94779878    -0.87700
C14         C  0.73045116  0.13873111  0.96991948     0.84500
C15         C  0.70340558  0.05862258  0.95429832     1.06100
H16         H  0.81645269  0.12061004  0.93577057     0.37900
O17         O  0.81583671  0.09714069  0.94224340    -1.10400
O18         O  0.83649316  0.04259048  0.01457990    -0.67000
Ni19       Ni  0.81661530  0.08656084  0.01411029     1.26300
O20         O  0.75232140  0.12813657  0.93874122    -0.67300
O21         O  0.86106482  0.10276902  0.02212349    -0.79600
C22         C  0.78950340  0.09096505  0.11135637     0.83900
O23         O  0.81338967  0.07795673  0.08650384    -0.66700
Ni24       Ni  0.85060240  0.07816519  0.90259420     1.27400
Ni25       Ni  0.77081439  0.08402844  0.93106841     1.26100
H26         H  0.77504048  0.04677091  0.00454476     0.38400
O27         O  0.76872499  0.11202571  0.58913746    -0.81500
O28         O  0.77808144  0.10119837  0.35775370    -0.66200
O29         O  0.77898854  0.07969659  0.50150760    -1.12800
C30         C  0.89062800  0.11781662  0.49130592     1.05400
O31         O  0.82861895  0.07651516  0.35068784    -0.79400
O32         O  0.86173043  0.04954830  0.43317400    -0.67000
Ni33       Ni  0.74159469  0.09000552  0.54350130     1.34900
C34         C  0.85618166  0.03788616  0.47852405     0.84100
O35         O  0.73361034  0.07179750  0.42180570    -0.80000
O36         O  0.71170666  0.06838306  0.50113923    -0.90200
C37         C  0.80111978  0.08872742  0.33080081     0.83700
O38         O  0.72845241  0.13130833  0.50969289    -0.68400
O39         O  0.88981577  0.10875642  0.44605043    -0.87700
C40         C  0.73466876  0.14599221  0.46649563     0.84500
C41         C  0.71045222  0.06348849  0.45378126     1.06100
H42         H  0.81813219  0.13215493  0.43377739     0.37900
O43         O  0.82003653  0.10865673  0.44037459    -1.10400
O44         O  0.84299372  0.05516785  0.51194311    -0.67000
Ni45       Ni  0.82168314  0.09826917  0.51270874     1.26300
O46         O  0.75390425  0.13369123  0.43334374    -0.67300
O47         O  0.86513991  0.11667871  0.52129154    -0.79600
C48         C  0.79521638  0.09911625  0.61113781     0.83900
O49         O  0.81969829  0.08867717  0.58489511    -0.66700
Ni50       Ni  0.85715576  0.09300861  0.40086886     1.27400
Ni51       Ni  0.77671411  0.09094153  0.42987046     1.26100
H52         H  0.78201066  0.05616044  0.50607176     0.38400
O53         O  0.56498021  0.33667032  0.83335709    -0.81500
O54         O  0.57957950  0.32574498  0.07258404    -0.66200
O55         O  0.59420962  0.32471424  0.93029512    -1.12800
C56         C  0.54286812  0.22120245  0.95807695     1.05400
O57         O  0.60030879  0.27559059  0.08817289    -0.79400
O58         O  0.61719035  0.23690651  0.01419374    -0.67000
Ni59       Ni  0.57529496  0.36199137  0.88911100     1.34900
C60         C  0.63049759  0.24178922  0.97036180     0.84100
O61         O  0.61023842  0.36541068  0.00513456    -0.80000
O62         O  0.58516210  0.39310838  0.93807234    -0.90200
C63         C  0.58860997  0.30214472  0.10398863     0.83700
O64         O  0.53046280  0.35756354  0.91501186    -0.68400
O65         O  0.55106786  0.22188687  0.00490634    -0.87700
C66         C  0.52254733  0.35786646  0.96178954     0.84500
C67         C  0.60243303  0.39216409  0.97922780     1.06100
H68         H  0.54019153  0.29103676  0.00012429     0.37900
O69         O  0.56424455  0.28669025  0.99642828    -1.10400
O70         O  0.61625342  0.25988706  0.93379732    -0.67000
Ni71       Ni  0.57269305  0.28400768  0.92563487     1.26300
O72         O  0.54395649  0.35019199  0.99735102    -0.67300
O73         O  0.55002862  0.24363541  0.92338356    -0.79600
C74         C  0.57318449  0.30807463  0.82098150     0.83900
O75         O  0.58043788  0.28434349  0.85396925    -0.66700
Ni76       Ni  0.57556464  0.25023365  0.04414403     1.27400
Ni77       Ni  0.58712269  0.32609462  0.00177927     1.26100
H78         H  0.61817129  0.32223193  0.92344205     0.38400
O79         O  0.55435200  0.33225990  0.33663844    -0.81500
O80         O  0.57408652  0.32505298  0.57102646    -0.66200
O81         O  0.59002762  0.32557288  0.42838624    -1.12800
C82         C  0.54825936  0.21740937  0.45364098     1.05400
O83         O  0.59903136  0.27622034  0.58497329    -0.79400
O84         O  0.61956068  0.23849328  0.51058825    -0.67000
Ni85       Ni  0.57170924  0.36119640  0.38304527     1.34900
C86         C  0.63235670  0.24489454  0.46668466     0.84100
O87         O  0.60043653  0.36931980  0.50252288    -0.80000
O88         O  0.58855719  0.39363324  0.42448576    -0.90200
C89         C  0.58481342  0.30147437  0.60187240     0.83700
O90         O  0.52739217  0.36491578  0.41220234    -0.68400
O91         O  0.55517142  0.21854567  0.50094696    -0.87700
C92         C  0.51735840  0.35901835  0.45783425     0.84500
C93         C  0.59993901  0.39435235  0.46986714     1.06100
H94         H  0.53876188  0.28728674  0.49719723     0.37900
O95         O  0.56306184  0.28501099  0.49377727    -1.10400
O96         O  0.61705828  0.26263648  0.43100977    -0.67000
Ni97       Ni  0.57214741  0.28320927  0.42324303     1.26300
O98         O  0.53696711  0.34649047  0.49325966    -0.67300
O99         O  0.55334573  0.24098128  0.41988740    -0.79600
C100        C  0.57031757  0.30743016  0.32115069     0.83900
O101        O  0.58125768  0.28445981  0.35265323    -0.66700
Ni102      Ni  0.57692977  0.24888448  0.54072618     1.27400
Ni103      Ni  0.58191408  0.32687089  0.49948077     1.26100
H104        H  0.61424206  0.32421998  0.42312529     0.38400
O105        O  0.46282868  0.99157552  0.01992292    -0.81500
O106        O  0.48123889  0.98530214  0.78875382    -0.66200
O107        O  0.49932166  0.98083169  0.93216520    -1.12800
C108        C  0.50186115  0.09665229  0.90004719     1.05400
O109        O  0.52446864  0.01653760  0.77740110    -0.79400
O110        O  0.55704751  0.04526461  0.84849261    -0.67000
Ni111      Ni  0.47359563  0.95556210  0.98035673     1.34900
C112        C  0.56714070  0.03576491  0.89324905     0.84100
O113        O  0.48956237  0.93464546  0.86046379    -0.80000
O114        O  0.48252925  0.91800642  0.94382329    -0.90200
C115        C  0.50258273  0.99917789  0.75912098     0.83700
O116        O  0.43075987  0.96386968  0.94879544    -0.68400
O117        O  0.50605692  0.09091164  0.85335494    -0.87700
C118        C  0.42052730  0.97581699  0.90519890     0.84500
C119        C  0.48729400  0.91237883  0.89724941     1.06100
H120        H  0.46506007  0.03668936  0.86052031     0.37900
O121        O  0.48808764  0.02796887  0.86499649    -1.10400
O122        O  0.54701888  0.02660790  0.92907559    -0.67000
Ni123      Ni  0.49828067  0.02716575  0.93602607     1.26300
O124        O  0.44013573  0.98347286  0.86818851    -0.67300
O125        O  0.49751626  0.07414111  0.93609722    -0.79600
C126        C  0.48539608  0.00778591  0.03864600     0.83900
O127        O  0.50580818  0.02313690  0.00887178    -0.66700
Ni128      Ni  0.51405916  0.05286140  0.81689207     1.27400
Ni129      Ni  0.48880910  0.98162320  0.86108350     1.26100
H130        H  0.52245330  0.97238933  0.93643227     0.38400
O131        O  0.48045177  0.97776513  0.51966521    -0.81500
O132        O  0.48332461  0.97991530  0.28951647    -0.66200
O133        O  0.51307617  0.97184055  0.42861591    -1.12800
C134        C  0.51409223  0.08775215  0.40271992     1.05400
O135        O  0.52897948  0.00789390  0.27764699    -0.79400
O136        O  0.56784137  0.03554920  0.34456769    -0.67000
Ni137      Ni  0.49440483  0.94321920  0.47920202     1.34900
C138        C  0.57853793  0.02775600  0.38966809     0.84100
O139        O  0.49407312  0.92616456  0.35930838    -0.80000
O140        O  0.50727752  0.90766586  0.44052269    -0.90200
C141        C  0.50379838  0.99491633  0.25912623     0.83700
O142        O  0.44966494  0.94335352  0.45272950    -0.68400
O143        O  0.51859649  0.08230970  0.35578851    -0.87700
C144        C  0.43381993  0.95821659  0.41496312     0.84500
C145        C  0.49941213  0.90282249  0.39475677     1.06100
H146        H  0.47478818  0.02943211  0.36376990     0.37900
O147        O  0.49765458  0.02003814  0.36629430    -1.10400
O148        O  0.55877287  0.01947823  0.42627665    -0.67000
Ni149      Ni  0.51056848  0.01796402  0.43595499     1.26300
O150        O  0.44854221  0.97535814  0.37937300    -0.67300
O151        O  0.50870234  0.06501245  0.43809390    -0.79600
C152        C  0.50181098  0.99554831  0.53813850     0.83900
O153        O  0.52048099  0.01261724  0.50796925    -0.66700
Ni154      Ni  0.52324812  0.04457327  0.31746664     1.27400
Ni155      Ni  0.49623849  0.97368121  0.36068237     1.26100
H156        H  0.53669632  0.96485839  0.42696590     0.38400
O157        O  0.44070036  0.68044251  0.85284656    -0.81500
O158        O  0.41924170  0.68110361  0.08369727    -0.66200
O159        O  0.40251024  0.68191241  0.94081703    -1.12800
C160        C  0.45021952  0.78600097  0.93648096     1.05400
O161        O  0.39837539  0.73173292  0.08495247    -0.79400
O162        O  0.38201201  0.77377556  0.00344111    -0.67000
Ni163      Ni  0.42371339  0.64897518  0.90321667     1.34900
C164        C  0.36367411  0.76741855  0.96621640     0.84100
O165        O  0.39236775  0.63696634  0.02428702    -0.80000
O166        O  0.40681560  0.61562970  0.95047282    -0.90200
C167        C  0.40915023  0.70494055  0.10850932     0.83700
O168        O  0.46788180  0.64493014  0.93438458    -0.68400
O169        O  0.44893127  0.78307141  0.98530358    -0.87700
C170        C  0.47719879  0.64754615  0.98002427     0.84500
C171        C  0.39327569  0.61349152  0.99480376     1.06100
H172        H  0.45554698  0.71725995  0.99393915     0.37900
O173        O  0.43123556  0.72085439  0.99396038    -1.10400
O174        O  0.37306483  0.74627519  0.93495962    -0.67000
Ni175      Ni  0.41796298  0.72482791  0.92393285     1.26300
O176        O  0.45689685  0.65850747  0.01279438    -0.67300
O177        O  0.43619955  0.76688980  0.90806841    -0.79600
C178        C  0.42147752  0.70212839  0.82891455     0.83900
O179        O  0.40620019  0.72375256  0.85347977    -0.66700
Ni180      Ni  0.42357544  0.75649924  0.03373887     1.27400
Ni181      Ni  0.41180398  0.67946681  0.01203641     1.26100
H182        H  0.37834152  0.68200633  0.93564573     0.38400
O183        O  0.43387551  0.67204329  0.35110517    -0.81500
O184        O  0.41736717  0.67212019  0.58665935    -0.66200
O185        O  0.39984677  0.67365406  0.44341499    -1.12800
C186        C  0.44997687  0.77764752  0.43930610     1.05400
O187        O  0.39820467  0.72321240  0.58457716    -0.79400
O188        O  0.38445147  0.76642293  0.50605455    -0.67000
Ni189      Ni  0.42008560  0.64070348  0.40537172     1.34900
C190        C  0.36390632  0.75744344  0.47359257     0.84100
O191        O  0.38847097  0.62927743  0.52703722    -0.80000
O192        O  0.40569245  0.60670783  0.45528723    -0.90200
C193        C  0.40888471  0.69716591  0.60984986     0.83700
O194        O  0.46496001  0.64002506  0.43414674    -0.68400
O195        O  0.45176910  0.77301719  0.48799480    -0.87700
C196        C  0.47362134  0.64006413  0.48074426     0.84500
C197        C  0.39114805  0.60512873  0.49903112     1.06100
H198        H  0.45498782  0.70684006  0.49505357     0.37900
O199        O  0.43082138  0.71138930  0.49611986    -1.10400
O200        O  0.37176507  0.73580905  0.44292562    -0.67000
Ni201      Ni  0.41597713  0.71644633  0.42718988     1.26300
O202        O  0.45276825  0.64820902  0.51456353    -0.67300
O203        O  0.43359782  0.75948649  0.41182332    -0.79600
C204        C  0.41585387  0.69617878  0.33043257     0.83900
O205        O  0.40196873  0.71699171  0.35782996    -0.66700
Ni206      Ni  0.42522158  0.74724422  0.53581724     1.27400
Ni207      Ni  0.40925750  0.67093049  0.51467401     1.26100
H208        H  0.37562420  0.67401235  0.43839758     0.38400
O209        O  0.23300188  0.90102173  0.09755753    -0.81500
O210        O  0.21588651  0.91886945  0.86724351    -0.66200
O211        O  0.21989488  0.93833105  0.00488184    -1.12800
C212        C  0.10700152  0.90873872  0.00840940     1.05400
O213        O  0.16758966  0.94758781  0.85304680    -0.79400
O214        O  0.14574615  0.97999498  0.93678892    -0.67000
Ni215      Ni  0.25849892  0.92516028  0.04581192     1.34900
C216        C  0.14807102  0.98684568  0.98307886     0.84100
O217        O  0.26329811  0.94521862  0.92027285    -0.80000
O218        O  0.28623949  0.94929309  0.99765972    -0.90200
C219        C  0.19296101  0.93096154  0.83694046     0.83700
O220        O  0.27180998  0.88518930  0.01687926    -0.68400
O221        O  0.10671332  0.92656225  0.96590442    -0.87700
C222        C  0.26257604  0.87124318  0.97814348     0.84500
C223        C  0.28640182  0.95425675  0.94900923     1.06100
H224        H  0.17443985  0.89106706  0.94708629     0.37900
O225        O  0.17541159  0.91414221  0.95120325    -1.10400
O226        O  0.15626452  0.96469745  0.01857656    -0.67000
Ni227      Ni  0.17712875  0.92058433  0.02194680     1.26300
O228        O  0.24002177  0.88419669  0.94688672    -0.67300
O229        O  0.13393035  0.90227319  0.03484388    -0.79600
C230        C  0.20705946  0.91288270  0.11929758     0.83900
O231        O  0.18218052  0.92547003  0.09281416    -0.66700
Ni232      Ni  0.13943924  0.93738117  0.91271412     1.27400
Ni233      Ni  0.21963217  0.92855545  0.93555921     1.26100
H234        H  0.21765615  0.96184321  0.00482084     0.38400
O235        O  0.22984257  0.89389775  0.60605185    -0.81500
O236        O  0.22315986  0.90732126  0.36800848    -0.66200
O237        O  0.22293286  0.92629126  0.50767397    -1.12800
C238        C  0.10856085  0.89485766  0.50062784     1.05400
O239        O  0.17683177  0.93854419  0.35732685    -0.79400
O240        O  0.14176222  0.96446398  0.43259236    -0.67000
Ni241      Ni  0.25936819  0.91116145  0.55265377     1.34900
C242        C  0.14627414  0.97296824  0.47725799     0.84100
O243        O  0.26972199  0.93215637  0.42574722    -0.80000
O244        O  0.29269622  0.92744338  0.50455269    -0.90200
C245        C  0.20059078  0.92148054  0.33867439     0.83700
O246        O  0.26656140  0.86864431  0.52943972    -0.68400
O247        O  0.11038661  0.90609345  0.45374921    -0.87700
C248        C  0.26173598  0.85716632  0.48668705     0.84500
C249        C  0.29456360  0.93377049  0.45620739     1.06100
H250        H  0.18016245  0.87856293  0.44869068     0.37900
O251        O  0.18020095  0.90188378  0.45104179    -1.10400
O252        O  0.15914249  0.95371512  0.51303093    -0.67000
Ni253      Ni  0.17858675  0.90989789  0.52114605     1.26300
O254        O  0.24446735  0.87262721  0.45065529    -0.67300
O255        O  0.13389603  0.89336719  0.53119535    -0.79600
C256        C  0.20296369  0.90797673  0.62191582     0.83900
O257        O  0.17954786  0.91801298  0.59103526    -0.66700
Ni258      Ni  0.14507407  0.92196680  0.40739664     1.27400
Ni259      Ni  0.22492331  0.91661536  0.43782524     1.26100
H260        H  0.22154637  0.94981677  0.50778246     0.38400
O261        O  0.94239241  0.82088074  0.19536596    -0.81500
O262        O  0.92258078  0.82336647  0.96358275    -0.66200
O263        O  0.90584159  0.82242780  0.10701304    -1.12800
C264        C  0.95216981  0.71266611  0.10870352     1.05400
O265        O  0.90135974  0.77494184  0.96257093    -0.79400
O266        O  0.88522459  0.73432347  0.04224399    -0.67000
Ni267      Ni  0.92439858  0.85414673  0.14598814     1.34900
C268        C  0.86705400  0.74330490  0.07883681     0.84100
O269        O  0.89493583  0.86833685  0.02395318    -0.80000
O270        O  0.90646896  0.88905638  0.09877507    -0.90200
C271        C  0.91171841  0.80068800  0.93876329     0.83700
O272        O  0.96834334  0.85691120  0.11561754    -0.68400
O273        O  0.95189442  0.71749919  0.05999347    -0.87700
C274        C  0.97767844  0.85458588  0.06978298     0.84500
C275        C  0.89466837  0.89187852  0.05314762     1.06100
H276        H  0.95964220  0.78333436  0.05318598     0.37900
O277        O  0.93535471  0.78168438  0.05337247    -1.10400
O278        O  0.87720657  0.76242284  0.11101746    -0.67000
Ni279      Ni  0.92206057  0.77804024  0.12352513     1.26300
O280        O  0.95896207  0.84300573  0.03717343    -0.67300
O281        O  0.93946674  0.73323932  0.13821226    -0.79600
C282        C  0.92322243  0.80086537  0.21895539     0.83900
O283        O  0.90982600  0.77944159  0.19418353    -0.66700
Ni284      Ni  0.92693890  0.74732326  0.01259579     1.27400
Ni285      Ni  0.91502808  0.82462920  0.03588019     1.26100
H286        H  0.88156455  0.82385996  0.11147629     0.38400
O287        O  0.93507414  0.83189335  0.69304336    -0.81500
O288        O  0.91326935  0.82968332  0.45948454    -0.66200
O289        O  0.89797536  0.83267679  0.60303599    -1.12800
C290        C  0.94133704  0.72180996  0.60665216     1.05400
O291        O  0.88756718  0.78354669  0.46417160    -0.79400
O292        O  0.87268604  0.74293831  0.54471669    -0.67000
Ni293      Ni  0.91900513  0.86416643  0.64003698     1.34900
C294        C  0.85524488  0.75358297  0.58088253     0.84100
O295        O  0.88945751  0.87804844  0.51731148    -0.80000
O296        O  0.90329943  0.89895127  0.59090380    -0.90200
C297        C  0.90148489  0.80618994  0.43743448     0.83700
O298        O  0.96305360  0.86267201  0.60910288    -0.68400
O299        O  0.93965337  0.72527124  0.55790826    -0.87700
C300        C  0.97217234  0.85830866  0.56364368     0.84500
C301        C  0.89140265  0.90197170  0.54541284     1.06100
H302        H  0.94886337  0.78991123  0.54938738     0.37900
O303        O  0.92446971  0.78961679  0.55041434    -1.10400
O304        O  0.86654195  0.77352550  0.61091844    -0.67000
Ni305      Ni  0.91249954  0.78786951  0.62051628     1.26300
O306        O  0.95189710  0.84844805  0.53148690    -0.67300
O307        O  0.92903497  0.74287736  0.63575242    -0.79600
C308        C  0.91674210  0.81082436  0.71632414     0.83900
O309        O  0.90185344  0.79052597  0.69117238    -0.66700
Ni310      Ni  0.91370671  0.75500742  0.51171392     1.27400
Ni311      Ni  0.90651307  0.83325725  0.53146205     1.26100
H312        H  0.87381070  0.83522104  0.60807241     0.38400
O313        O  0.66063112  0.59390997  0.16706632    -0.81500
O314        O  0.67512248  0.58508860  0.93877822    -0.66200
O315        O  0.68993769  0.56941286  0.08162847    -1.12800
C316        C  0.75681094  0.66204892  0.05845418     1.05400
O317        O  0.72984807  0.58939228  0.92659340    -0.79400
O318        O  0.77233383  0.58437461  0.00791706    -0.67000
Ni319      Ni  0.65368591  0.55796228  0.12641486     1.34900
C320        C  0.77623788  0.57558773  0.05523322     0.84100
O321        O  0.65816259  0.53627825  0.00776239    -0.80000
O322        O  0.64570121  0.52050639  0.08961256    -0.90200
C323        C  0.70002757  0.58851240  0.90875814     0.83700
O324        O  0.61657996  0.58201596  0.09074268    -0.68400
O325        O  0.76297309  0.65078386  0.01534046    -0.87700
C326        C  0.61350220  0.59809613  0.04721812     0.84500
C327        C  0.64684599  0.51566830  0.04216994     1.06100
H328        H  0.69080715  0.63420021  0.00768165     0.37900
O329        O  0.70570207  0.61511787  0.01562659    -1.10400
O330        O  0.75585983  0.58537197  0.08883458    -0.67000
Ni331      Ni  0.71239289  0.60938675  0.08774700     1.26300
O332        O  0.63818851  0.60049769  0.01597848    -0.67300
O333        O  0.73560978  0.64963232  0.09059327    -0.79600
C334        C  0.68913535  0.59813015  0.18745004     0.83900
O335        O  0.71507947  0.60240957  0.15980936    -0.66700
Ni336      Ni  0.74492496  0.61928152  0.97364054     1.27400
Ni337      Ni  0.68121069  0.57632007  0.01058163     1.26100
H338        H  0.70655973  0.55141668  0.08629610     0.38400
O339        O  0.65640168  0.59290464  0.66788319    -0.81500
O340        O  0.67585322  0.58802965  0.43633476    -0.66200
O341        O  0.68791376  0.57292204  0.57987277    -1.12800
C342        C  0.74670819  0.67167291  0.56009753     1.05400
O343        O  0.72986607  0.59742830  0.42651896    -0.79400
O344        O  0.77002125  0.59726510  0.50823442    -0.67000
Ni345      Ni  0.65185074  0.55840828  0.62302200     1.34900
C346        C  0.77302801  0.58660580  0.55488135     0.84100
O347        O  0.66129547  0.53750634  0.50275106    -0.80000
O348        O  0.64547026  0.52188202  0.58297765    -0.90200
C349        C  0.70121065  0.59249405  0.40763736     0.83700
O350        O  0.61494901  0.58249374  0.58759774    -0.68400
O351        O  0.75292971  0.66230564  0.51579841    -0.87700
C352        C  0.61161101  0.59734269  0.54316068     0.84500
C353        C  0.64890902  0.51671429  0.53588136     1.06100
H354        H  0.68424566  0.63811970  0.50737840     0.37900
O355        O  0.70088550  0.62039836  0.51513206    -1.10400
O356        O  0.75141120  0.59345983  0.58855437    -0.67000
Ni357      Ni  0.70686486  0.61462401  0.58753033     1.26300
O358        O  0.63609024  0.59991554  0.51183957    -0.67300
O359        O  0.72723602  0.65651593  0.59222381    -0.79600
C360        C  0.68428858  0.59981794  0.68778228     0.83900
O361        O  0.70939275  0.60700666  0.65967799    -0.66700
Ni362      Ni  0.73962473  0.62911182  0.47368954     1.27400
Ni363      Ni  0.68070398  0.57942460  0.50819273     1.26100
H364        H  0.70571832  0.55607828  0.58517762     0.38400
O365        O  0.08720673  0.23571520  0.92168763    -0.81500
O366        O  0.11167782  0.21283837  0.15706888    -0.66200
O367        O  0.11838018  0.20688946  0.01285980    -1.12800
C368        C  0.01869483  0.14708446  0.04269765     1.05400
O369        O  0.10738326  0.15939448  0.16760463    -0.79400
O370        O  0.09567375  0.11916088  0.09166415    -0.67000
Ni371      Ni  0.12289343  0.24534861  0.96710486     1.34900
C372        C  0.10545009  0.11738878  0.04574471     0.84100
O373        O  0.15643686  0.23553962  0.08744223    -0.80000
O374        O  0.15960926  0.25848907  0.00684881    -0.90200
C375        C  0.11099006  0.18662962  0.18638627     0.83700
O376        O  0.09154660  0.27429239  0.99866535    -0.68400
O377        O  0.02933646  0.14099884  0.08871121    -0.87700
C378        C  0.08063806  0.27512812  0.04408333     0.84500
C379        C  0.17041324  0.25398000  0.05277621     1.06100
H380        H  0.05607959  0.20339981  0.08560876     0.37900
O381        O  0.07519734  0.18861181  0.08006382    -1.10400
O382        O  0.10156042  0.14169310  0.01214215    -0.67000
Ni383      Ni  0.07728964  0.18433618  0.00887969     1.26300
O384        O  0.08868172  0.25271507  0.07924106    -0.67300
O385        O  0.03518383  0.16332558  0.00812732    -0.79600
C386        C  0.08179993  0.20820227  0.90562083     0.83900
O387        O  0.08038676  0.18290038  0.93668599    -0.66700
Ni388      Ni  0.06906218  0.15097105  0.12588923     1.27400
Ni389      Ni  0.11567817  0.21181501  0.08472252     1.26100
H390        H  0.13738210  0.19200874  0.00713386     0.38400
O391        O  0.06798070  0.16579839  0.67380398    -0.81500
O392        O  0.08882199  0.17577673  0.43463742    -0.66200
O393        O  0.10148091  0.17292621  0.57915341    -1.12800
C394        C  0.05363904  0.28200276  0.55048010     1.05400
O395        O  0.11474899  0.22206426  0.42349528    -0.79400
O396        O  0.12928312  0.26072369  0.49931194    -0.67000
Ni397      Ni  0.08047214  0.13852717  0.62038033     1.34900
C398        C  0.14111616  0.25506944  0.54432759     0.84100
O399        O  0.11400839  0.12948768  0.50328974    -0.80000
O400        O  0.09163333  0.10558024  0.57389545    -0.90200
C401        C  0.10381141  0.19667112  0.40557512     0.83700
O402        O  0.03609946  0.14670785  0.59212153    -0.68400
O403        O  0.06276347  0.28068171  0.50387302    -0.87700
C404        C  0.02745781  0.14988739  0.54537405     0.84500
C405        C  0.10740631  0.10396448  0.53173378     1.06100
H406        H  0.05094868  0.21507342  0.50805354     0.37900
O407        O  0.07515375  0.21552363  0.51265901    -1.10400
O408        O  0.12674683  0.23653751  0.57885858    -0.67000
Ni409      Ni  0.08247414  0.21662174  0.58390228     1.26300
O410        O  0.04897252  0.15615443  0.51002715    -0.67300
O411        O  0.06097773  0.25927862  0.58551497    -0.79600
C412        C  0.07817095  0.19239645  0.68808978     0.83900
O413        O  0.08873995  0.21481186  0.65643409    -0.66700
Ni414      Ni  0.08876201  0.25024286  0.46600969     1.27400
Ni415      Ni  0.09442983  0.17275998  0.50694988     1.26100
H416        H  0.12543280  0.17205264  0.58638578     0.38400
O417        O  0.27504084  0.39904055  0.93292061    -0.81500
O418        O  0.27608596  0.41403007  0.16045236    -0.66200
O419        O  0.27435544  0.43504077  0.01653726    -1.12800
C420        C  0.39138999  0.40353307  0.03136342     1.05400
O421        O  0.32049869  0.44400758  0.16560873    -0.79400
O422        O  0.35687368  0.46870568  0.08697074    -0.67000
Ni423      Ni  0.24155727  0.41878348  0.97432821     1.34900
C424        C  0.34784265  0.48201983  0.04347794     0.84100
O425        O  0.22639022  0.43756363  0.09437577    -0.80000
O426        O  0.20631314  0.43733706  0.01402845    -0.90200
C427        C  0.29690831  0.42805321  0.18702239     0.83700
O428        O  0.23705833  0.37706318  0.00943357    -0.68400
O429        O  0.38859100  0.40888631  0.07843650    -0.87700
C430        C  0.24649356  0.36368014  0.05257452     0.84500
C431        C  0.20262089  0.44255513  0.06105427     1.06100
H432        H  0.32221562  0.38696476  0.08286735     0.37900
O433        O  0.31987368  0.41053038  0.07797208    -1.10400
O434        O  0.33291049  0.46669957  0.01042369    -0.67000
Ni435      Ni  0.32059965  0.42199832  0.00609939     1.26300
O436        O  0.26124877  0.37878923  0.08578275    -0.67300
O437        O  0.36730481  0.40848264  0.99881837    -0.79600
C438        C  0.29666092  0.41573346  0.90830692     0.83900
O439        O  0.31740490  0.43135111  0.93289380    -0.66700
Ni440      Ni  0.35335281  0.42610568  0.12038332     1.27400
Ni441      Ni  0.27342467  0.42372666  0.08812648     1.26100
H442        H  0.27184829  0.45858870  0.01132422     0.38400
O443        O  0.26419396  0.39895353  0.42816625    -0.81500
O444        O  0.26882102  0.40514319  0.66167314    -0.66200
O445        O  0.26491749  0.42964861  0.51809873    -1.12800
C446        C  0.38174474  0.39421329  0.52627536     1.05400
O447        O  0.31389627  0.43446699  0.66202386    -0.79400
O448        O  0.35360406  0.45770974  0.58623403    -0.67000
Ni449      Ni  0.23152398  0.41598418  0.47444794     1.34900
C450        C  0.34244026  0.47383030  0.54588127     0.84100
O451        O  0.21835498  0.43213839  0.59762144    -0.80000
O452        O  0.19700116  0.43285782  0.51758010    -0.90200
C453        C  0.29124438  0.41875167  0.68632621     0.83700
O454        O  0.22617469  0.37279466  0.50520446    -0.68400
O455        O  0.37925664  0.39591225  0.57455438    -0.87700
C456        C  0.23190313  0.35862397  0.54941211     0.84500
C457        C  0.19430071  0.43798679  0.56480001     1.06100
H458        H  0.31178221  0.37797269  0.57806598     0.37900
O459        O  0.31048651  0.40158374  0.57574156    -1.10400
O460        O  0.32388257  0.46090827  0.51428351    -0.67000
Ni461      Ni  0.31092766  0.41674448  0.50541071     1.26300
O462        O  0.24777017  0.37207636  0.58403362    -0.67300
O463        O  0.35759860  0.40294847  0.49493904    -0.79600
C464        C  0.28745976  0.41565258  0.40721338     0.83900
O465        O  0.30744578  0.43017779  0.43434652    -0.66700
Ni466      Ni  0.34566890  0.41484728  0.61746489     1.27400
Ni467      Ni  0.26452819  0.41605204  0.58901932     1.26100
H468        H  0.26277593  0.45325732  0.51505310     0.38400
O469        O  0.95556540  0.50638847  0.98863489    -0.81500
O470        O  0.96451161  0.50117552  0.21671205    -0.66200
O471        O  0.99054366  0.51050482  0.07748943    -1.12800
C472        C  0.01200457  0.39684947  0.09478823     1.05400
O473        O  0.01042304  0.46929716  0.23474745    -0.79400
O474        O  0.05312511  0.45858965  0.15787723    -0.67000
Ni475      Ni  0.96786087  0.54022955  0.02937802     1.34900
C476        C  0.06209988  0.46331099  0.11154747     0.84100
O477        O  0.97239807  0.55464407  0.15066558    -0.80000
O478        O  0.97885258  0.57508685  0.06887483    -0.90200
C479        C  0.98542310  0.48694464  0.24894001     0.83700
O480        O  0.92383119  0.53993503  0.05772745    -0.68400
O481        O  0.02049298  0.40315292  0.13973796    -0.87700
C482        C  0.91038311  0.52410266  0.09531020     0.84500
C483        C  0.97692116  0.57842192  0.11674106     1.06100
H484        H  0.96014563  0.45123615  0.14444514     0.37900
O485        O  0.98167249  0.46122857  0.13967816    -1.10400
O486        O  0.04103367  0.46391450  0.07491906    -0.67000
Ni487      Ni  0.99242315  0.46466963  0.06852358     1.26300
O488        O  0.92771004  0.50734949  0.13037446    -0.67300
O489        O  0.99614623  0.41796282  0.06367521    -0.79600
C490        C  0.97786022  0.48864626  0.96827312     0.83900
O491        O  0.99934987  0.47138148  0.99617471    -0.66700
Ni492      Ni  0.01391669  0.43783192  0.18453433     1.27400
Ni493      Ni  0.97606981  0.50750416  0.14624948     1.26100
H494        H  0.01348175  0.51760700  0.07786373     0.38400
O495        O  0.95673029  0.52023185  0.48256828    -0.81500
O496        O  0.95931536  0.51320783  0.71810985    -0.66200
O497        O  0.98719541  0.52187399  0.57829825    -1.12800
C498        C  0.99374817  0.40617726  0.60001821     1.05400
O499        O  0.00554635  0.48205045  0.72858227    -0.79400
O500        O  0.04391092  0.45472893  0.66109977    -0.67000
Ni501      Ni  0.96666372  0.55244802  0.52868335     1.34900
C502        C  0.05466017  0.46352855  0.61699635     0.84100
O503        O  0.97113335  0.56589397  0.65280361    -0.80000
O504        O  0.97523111  0.58687220  0.57093201    -0.90200
C505        C  0.98079799  0.49726309  0.74767313     0.83700
O506        O  0.92164889  0.55031650  0.55310167    -0.68400
O507        O  0.99747321  0.41022160  0.64740025    -0.87700
C508        C  0.90748049  0.53711120  0.59246115     0.84500
C509        C  0.97439024  0.58977298  0.61895217     1.06100
H510        H  0.95055883  0.46578974  0.64166083     0.37900
O511        O  0.97326678  0.47353706  0.63942865    -1.10400
O512        O  0.03482143  0.47244795  0.57982300    -0.67000
Ni513      Ni  0.98638862  0.47616111  0.56988099     1.26300
O514        O  0.92377125  0.52259358  0.63044642    -0.67300
O515        O  0.98646720  0.42966757  0.56601655    -0.79600
C516        C  0.97795208  0.49913708  0.46714912     0.83900
O517        O  0.99659410  0.48144599  0.49873499    -0.66700
Ni518      Ni  0.00015283  0.44679780  0.68732006     1.27400
Ni519      Ni  0.97168283  0.51942036  0.64725909     1.26100
H520        H  0.01055874  0.52768522  0.57940524     0.38400
C521        C  0.94916187  0.50060755  0.88401211    -0.26900
C522        C  0.97840021  0.48920177  0.91197892    -0.15000
C523        C  0.00808913  0.48107458  0.88547692     0.35600
C524        C  0.00819953  0.48480350  0.83213304    -0.26400
C525        C  0.97906683  0.49624015  0.80400783    -0.15600
C526        C  0.94917686  0.50391840  0.83037846     0.36700
N527        N  0.91866179  0.51428701  0.80313335    -0.89900
H528        H  0.92600845  0.50687277  0.90382273     0.17800
H529        H  0.03153621  0.47863376  0.81271473     0.17800
N530        N  0.03850178  0.46980474  0.91232347    -0.88900
H531        H  0.91064716  0.53720318  0.81432169     0.35200
H532        H  0.90011921  0.49779896  0.81414837     0.40300
H533        H  0.05747964  0.48577781  0.90116436     0.39900
H534        H  0.04575144  0.44674429  0.90090162     0.34800
C535        C  0.95158928  0.50452744  0.38066092    -0.26900
C536        C  0.97997825  0.49507744  0.41168632    -0.15000
C537        C  0.01015419  0.48407951  0.38835038     0.35600
C538        C  0.01104735  0.48234315  0.33556303    -0.26400
C539        C  0.98261755  0.49144089  0.30437560    -0.15600
C540        C  0.95254722  0.50295013  0.32761309     0.36700
N541        N  0.92246694  0.51282963  0.29890892    -0.89900
H542        H  0.92828450  0.51326210  0.39775316     0.17800
H543        H  0.03459088  0.47386640  0.31887660     0.17800
N544        N  0.04075353  0.47559568  0.41660607    -0.88900
H545        H  0.91516684  0.49330310  0.27906593     0.35200
H546        H  0.92765390  0.53266365  0.27291298     0.40300
H547        H  0.03687974  0.45536421  0.44241109     0.39900
H548        H  0.04705086  0.49540633  0.43659547     0.34800
C549        C  0.14866435  0.43880767  0.62997471    -0.26900
C550        C  0.16062006  0.45003396  0.58175030    -0.15000
C551        C  0.13868723  0.46955822  0.54798235     0.35600
C552        C  0.10465425  0.47507598  0.56117394    -0.26400
C553        C  0.09186531  0.46169783  0.60792795    -0.15600
C554        C  0.11464716  0.44432281  0.64335655     0.36700
N555        N  0.10325178  0.43084674  0.69217437    -0.89900
H556        H  0.16526778  0.42401204  0.65644748     0.17800
H557        H  0.08800951  0.48914246  0.53389272     0.17800
N558        N  0.15081185  0.48363360  0.49994804    -0.88900
H559        H  0.11742903  0.44041291  0.72048388     0.35200
H560        H  0.10818400  0.40554267  0.69459870     0.40300
H561        H  0.14678179  0.50900525  0.49894168     0.39900
H562        H  0.13634392  0.47532583  0.47080879     0.34800
C563        C  0.14494361  0.46585798  0.03817039    -0.26900
C564        C  0.16823708  0.45404611  0.07662547    -0.15000
C565        C  0.15709594  0.45069356  0.12775625     0.35600
C566        C  0.12272487  0.45665396  0.13879743    -0.26400
C567        C  0.09883118  0.46537239  0.09964760    -0.15600
C568        C  0.11052761  0.47151474  0.04889818     0.36700
N569        N  0.08742110  0.48225764  0.00795316    -0.89900
H570        H  0.15333229  0.46958982  0.99887981     0.17800
H571        H  0.11450859  0.45233278  0.17808201     0.17800
N572        N  0.18004510  0.43952101  0.16839193    -0.88900
H573        H  0.10010004  0.48469727  0.97295299     0.35200
H574        H  0.07772330  0.50559703  0.01468737     0.40300
H575        H  0.17120165  0.41794353  0.18658761     0.39900
H576        H  0.17965910  0.45713214  0.19488364     0.34800
C577        C  0.27238852  0.39811303  0.82780753    -0.26900
C578        C  0.29646760  0.41625706  0.85148127    -0.15000
C579        C  0.31826557  0.43529453  0.82027260     0.35600
C580        C  0.31579811  0.43571811  0.76690717    -0.26400
C581        C  0.29163858  0.41773322  0.74319812    -0.15600
C582        C  0.26968375  0.39880427  0.77438122     0.36700
N583        N  0.24460873  0.38020800  0.75230347    -0.89900
H584        H  0.25511794  0.38335595  0.85079977     0.17800
H585        H  0.33304687  0.45052487  0.74397041     0.17800
N586        N  0.34276387  0.45455001  0.84227989    -0.88900
H587        H  0.22084593  0.38811957  0.76524437     0.35200
H588        H  0.24883832  0.35566541  0.76573007     0.40300
H589        H  0.33796267  0.47897449  0.82859522     0.39900
H590        H  0.36673863  0.44711843  0.82955455     0.34800
C591        C  0.28042269  0.39780503  0.26830953    -0.26900
C592        C  0.29405021  0.42572115  0.24332289    -0.15000
C593        C  0.30666920  0.44973262  0.27265805     0.35600
C594        C  0.30505709  0.44558699  0.32611467    -0.26400
C595        C  0.29114449  0.41779716  0.35107744    -0.15600
C596        C  0.27929344  0.39330700  0.32185588     0.36700
N597        N  0.26672847  0.36370615  0.34656185    -0.89900
H598        H  0.27149960  0.37892633  0.24598904     0.17800
H599        H  0.31408814  0.46459319  0.34810579     0.17800
N600        N  0.32050071  0.47870561  0.24842143    -0.88900
H601        H  0.28691535  0.35120653  0.36658637     0.35200
H602        H  0.25887101  0.34835442  0.31955242     0.40300
H603        H  0.34536598  0.47986882  0.26139584     0.39900
H604        H  0.30647496  0.49893354  0.26013375     0.34800
C605        C  0.00769804  0.34731614  0.62384259    -0.26900
C606        C  0.00153997  0.37255612  0.58471708    -0.15000
C607        C  0.00884350  0.36587840  0.53367164     0.35600
C608        C  0.02437123  0.33580523  0.52392966    -0.26400
C609        C  0.03363671  0.31181378  0.56366733    -0.15600
C610        C  0.02391361  0.31755311  0.61430884     0.36700
N611        N  0.03098619  0.29445711  0.65744194    -0.89900
H612        H  0.00169201  0.35127231  0.66320363     0.17800
H613        H  0.03039952  0.33187342  0.48458447     0.17800
N614        N  0.00225792  0.38930309  0.49083572    -0.88900
H615        H  0.05717490  0.29024480  0.66100256     0.35200
H616        H  0.01939976  0.27269221  0.65193472     0.40300
H617        H  0.97655185  0.39652840  0.49045233     0.39900
H618        H  0.01691233  0.40946182  0.49435193     0.34800
C619        C  0.17075648  0.29362471  0.59715391    -0.26900
C620        C  0.17172524  0.27350546  0.55624556    -0.15000
C621        C  0.19799361  0.27755663  0.51992767     0.35600
C622        C  0.22013125  0.30345128  0.52205747    -0.26400
C623        C  0.21695064  0.32574547  0.55979880    -0.15600
C624        C  0.19276744  0.31967657  0.59905028     0.36700
N625        N  0.18791516  0.34128042  0.63872706    -0.89900
H626        H  0.15065821  0.29118263  0.62513386     0.17800
H627        H  0.23849552  0.30768748  0.49181475     0.17800
N628        N  0.20076206  0.25645843  0.47903924    -0.88900
H629        H  0.18174744  0.36478965  0.62191488     0.35200
H630        H  0.21074184  0.34180959  0.65860506     0.40300
H631        H  0.20644716  0.23274913  0.49543013     0.39900
H632        H  0.22102334  0.26271647  0.45510545     0.34800
C633        C  0.03134009  0.33861249  0.11767296    -0.26900
C634        C  0.02331225  0.36376117  0.07908129    -0.15000
C635        C  0.03076420  0.35787875  0.02783419     0.35600
C636        C  0.04848815  0.32847720  0.01725976    -0.26400
C637        C  0.05843954  0.30419512  0.05646720    -0.15600
C638        C  0.04834317  0.30915039  0.10700904     0.36700
N639        N  0.05592413  0.28475585  0.14822477    -0.89900
H640        H  0.02526481  0.34215689  0.15714880     0.17800
H641        H  0.05518822  0.32491715  0.97803715     0.17800
N642        N  0.02180678  0.38222340  0.98686452    -0.88900
H643        H  0.03313910  0.27818847  0.16558744     0.35200
H644        H  0.07058163  0.29509489  0.17518170     0.40300
H645        H  0.99538507  0.38399728  0.98449344     0.39900
H646        H  0.03035372  0.37470304  0.95183475     0.34800
C647        C  0.21861510  0.31998949  0.10664701    -0.26900
C648        C  0.23818703  0.32917603  0.06361784    -0.15000
C649        C  0.24238105  0.30763957  0.02493098     0.35600
C650        C  0.22337651  0.27975938  0.02619133    -0.26400
C651        C  0.19955744  0.27330730  0.06498494    -0.15600
C652        C  0.19907007  0.29215314  0.10750055     0.36700
N653        N  0.17654435  0.28500918  0.14921627    -0.89900
H654        H  0.21555265  0.33621540  0.13694109     0.17800
H655        H  0.22471524  0.26498755  0.99388501     0.17800
N656        N  0.26400794  0.31544185  0.98219938    -0.88900
H657        H  0.15995148  0.30533981  0.15202340     0.35200
H658        H  0.19105090  0.28175591  0.18269405     0.40300
H659        H  0.24930306  0.31722063  0.94890255     0.39900
H660        H  0.28188664  0.29604783  0.98005685     0.34800
C661        C  0.07632116  0.17414630  0.83270536    -0.26900
C662        C  0.07744051  0.20543267  0.84989006    -0.15000
C663        C  0.07693216  0.23284553  0.81322631     0.35600
C664        C  0.07700883  0.22824222  0.76074046    -0.26400
C665        C  0.07697047  0.19679349  0.74373661    -0.15600
C666        C  0.07615507  0.16953629  0.78055667     0.36700
N667        N  0.07626561  0.13682179  0.76551843    -0.89900
H668        H  0.07659262  0.15273420  0.85987150     0.17800
H669        H  0.07711486  0.24944189  0.73324398     0.17800
N670        N  0.07636405  0.26542681  0.82878367    -0.88900
H671        H  0.05472656  0.12585914  0.78078722     0.35200
H672        H  0.09757560  0.12382020  0.78158665     0.40300
H673        H  0.05468502  0.27807775  0.81328318     0.39900
H674        H  0.09750376  0.27690749  0.81314784     0.34800
C675        C  0.12472250  0.21572432  0.31866218    -0.26900
C676        C  0.10879087  0.19166054  0.35028111    -0.15000
C677        C  0.09650048  0.16432482  0.32782264     0.35600
C678        C  0.09886093  0.16276797  0.27458934    -0.26400
C679        C  0.11325288  0.18765649  0.24285642    -0.15600
C680        C  0.12722440  0.21396880  0.26548374     0.36700
N681        N  0.14380917  0.23891958  0.23448821    -0.89900
H682        H  0.13482925  0.23646126  0.33528869     0.17800
H683        H  0.08832095  0.14236585  0.25759165     0.17800
N684        N  0.08083521  0.13858695  0.35857519    -0.88900
H685        H  0.16536494  0.22786254  0.21897058     0.35200
H686        H  0.15230469  0.25674289  0.25690183     0.40300
H687        H  0.09967549  0.12633121  0.38177299     0.39900
H688        H  0.07166932  0.12130277  0.33574174     0.34800
C689        C  0.81898683  0.56958176  0.61852481    -0.26900
C690        C  0.80393529  0.56647856  0.57069933    -0.15000
C691        C  0.82061478  0.54672141  0.53628917     0.35600
C692        C  0.85349787  0.53398559  0.54718510    -0.26400
C693        C  0.87013037  0.54025475  0.59226186    -0.15600
C694        C  0.85195584  0.55668455  0.62956524     0.36700
N695        N  0.86715095  0.56263223  0.67717545    -0.89900
H696        H  0.80615226  0.58409729  0.64592798     0.17800
H697        H  0.86698409  0.52092660  0.51861207     0.17800
N698        N  0.80458249  0.54027218  0.48951992    -0.88900
H699        H  0.88877381  0.57585396  0.66955313     0.35200
H700        H  0.87453082  0.54008042  0.69636336     0.40300
H701        H  0.80339683  0.51494646  0.48898586     0.39900
H702        H  0.81982747  0.54872888  0.45908994     0.34800
C703        C  0.85624259  0.52073903  0.05016936    -0.26900
C704        C  0.87279189  0.52665694  0.09554986    -0.15000
C705        C  0.85476358  0.54375902  0.13210758     0.35600
C706        C  0.82188016  0.55745905  0.12007030    -0.26400
C707        C  0.80690965  0.55458530  0.07193197    -0.15600
C708        C  0.82372286  0.53438097  0.03814061     0.36700
N709        N  0.80839653  0.52852517  0.99056679    -0.89900
H710        H  0.86978823  0.50750949  0.02184691     0.17800
H711        H  0.80904520  0.57242675  0.14684980     0.17800
N712        N  0.87096676  0.54954453  0.17923371    -0.88900
H713        H  0.80664525  0.50328351  0.98962272     0.35200
H714        H  0.82441782  0.53672597  0.96094658     0.40300
H715        H  0.87556006  0.52685310  0.19983010     0.39900
H716        H  0.85465952  0.56317317  0.20153038     0.34800
C717        C  0.66044998  0.58964569  0.77578825    -0.26900
C718        C  0.68773847  0.59908703  0.74434558    -0.15000
C719        C  0.71864039  0.60557395  0.76772196     0.35600
C720        C  0.72196226  0.60130836  0.82097160    -0.26400
C721        C  0.69496206  0.59126336  0.85240486    -0.15600
C722        C  0.66367718  0.58588901  0.82930779     0.36700
N723        N  0.63511107  0.57637390  0.85969463    -0.89900
H724        H  0.63645553  0.58469111  0.75887598     0.17800
H725        H  0.74597949  0.60637415  0.83771947     0.17800
N726        N  0.74692991  0.61654115  0.73783813    -0.88900
H727        H  0.62716085  0.55433021  0.84783101     0.35200
H728        H  0.61548345  0.59407157  0.85215604     0.40300
H729        H  0.76740406  0.59981387  0.74554287     0.39900
H730        H  0.75347185  0.63909975  0.74957863     0.34800
C731        C  0.72434335  0.60423592  0.32058812    -0.26900
C732        C  0.69802003  0.59198796  0.35150725    -0.15000
C733        C  0.66887431  0.58122805  0.32807608     0.35600
C734        C  0.66611535  0.58455190  0.27452772    -0.26400
C735        C  0.69227811  0.59729581  0.24373101    -0.15600
C736        C  0.72187755  0.60684263  0.26731130     0.36700
N737        N  0.74950784  0.61950465  0.23758093    -0.89900
H738        H  0.74700177  0.61243494  0.33772375     0.17800
H739        H  0.64371065  0.57630334  0.25678411     0.17800
N740        N  0.64246412  0.56648454  0.35840798    -0.88900
H741        H  0.77114916  0.60453125  0.24665548     0.35200
H742        H  0.75383442  0.64289842  0.24819727     0.40300
H743        H  0.65264146  0.54445050  0.37615162     0.39900
H744        H  0.62262978  0.56043301  0.33522426     0.34800
C745        C  0.98776411  0.67937006  0.60842987    -0.26900
C746        C  0.95698845  0.69055817  0.62889843    -0.15000
C747        C  0.93779106  0.66852945  0.65943906     0.35600
C748        C  0.94674682  0.63493871  0.66220733    -0.26400
C749        C  0.97450137  0.62335552  0.63452193    -0.15600
C750        C  0.99686869  0.64599737  0.61141305     0.36700
N751        N  0.02833513  0.63568475  0.58930754    -0.89900
H752        H  0.00334417  0.69634025  0.58625057     0.17800
H753        H  0.92982595  0.61783227  0.68115606     0.17800
N754        N  0.90721802  0.67966378  0.68289277    -0.88900
H755        H  0.02370264  0.62164099  0.55899998     0.35200
H756        H  0.04221099  0.62116218  0.61733395     0.40300
H757        H  0.90916252  0.67309313  0.72218447     0.39900
H758        H  0.88744308  0.66705686  0.66867402     0.34800
C759        C  0.80021546  0.74520834  0.54072515    -0.26900
C760        C  0.82019104  0.74173894  0.58518426    -0.15000
C761        C  0.80972160  0.72054213  0.62676728     0.35600
C762        C  0.78231705  0.70016442  0.62074966    -0.26400
C763        C  0.76530346  0.70067040  0.57357611    -0.15600
C764        C  0.77272381  0.72534636  0.53473433     0.36700
N765        N  0.75366195  0.72862153  0.48779747    -0.89900
H766        H  0.80770537  0.76187063  0.50888709     0.17800
H767        H  0.77661140  0.68182353  0.65129713     0.17800
N768        N  0.82826341  0.71787528  0.67380012    -0.88900
H769        H  0.76260273  0.74745032  0.46277488     0.35200
H770        H  0.72872651  0.73556247  0.49672755     0.40300
H771        H  0.81158314  0.72424653  0.70262914     0.39900
H772        H  0.83593373  0.69334813  0.68215893     0.34800
C773        C  0.99458162  0.66736958  0.10351593    -0.26900
C774        C  0.96687712  0.68042278  0.12964647    -0.15000
C775        C  0.94889463  0.65946516  0.16432128     0.35600
C776        C  0.95485547  0.62526089  0.16445107    -0.26400
C777        C  0.97902001  0.61226779  0.13148116    -0.15600
C778        C  0.00087546  0.63354758  0.10410574     0.36700
N779        N  0.02770870  0.62059037  0.07359859    -0.89900
H780        H  0.00931344  0.68352767  0.07841440     0.17800
H781        H  0.93863576  0.60891832  0.18663460     0.17800
N782        N  0.92290931  0.67270228  0.19585687    -0.88900
H783        H  0.04480469  0.60717429  0.09850207     0.35200
H784        H  0.04104783  0.63946025  0.05491242     0.40300
H785        H  0.93460235  0.68686140  0.22134198     0.39900
H786        H  0.91148169  0.65395990  0.21808877     0.34800
C787        C  0.81252132  0.73405701  0.03777168    -0.26900
C788        C  0.83265448  0.73012892  0.08201251    -0.15000
C789        C  0.82264358  0.70816868  0.12309022     0.35600
C790        C  0.79493938  0.68844648  0.11717560    -0.26400
C791        C  0.77692959  0.69016987  0.07074654    -0.15600
C792        C  0.78435380  0.71515967  0.03214467     0.36700
N793        N  0.76476792  0.72110823  0.98581811    -0.89900
H794        H  0.81964810  0.75107184  0.00614505     0.17800
H795        H  0.78949656  0.66969642  0.14725856     0.17800
N796        N  0.84193794  0.70333951  0.16936220    -0.88900
H797        H  0.75625541  0.74567342  0.98302205     0.35200
H798        H  0.74278752  0.70797221  0.98796897     0.40300
H799        H  0.84260091  0.72575730  0.18527918     0.39900
H800        H  0.86660028  0.69609328  0.15982400     0.34800
C801        C  0.92234523  0.83225212  0.85479160    -0.26900
C802        C  0.91061799  0.80399958  0.88168083    -0.15000
C803        C  0.89925287  0.77871528  0.85330689     0.35600
C804        C  0.90147998  0.78146813  0.79976992    -0.26400
C805        C  0.91424958  0.80921287  0.77307326    -0.15600
C806        C  0.92386041  0.83525780  0.80111175     0.36700
N807        N  0.93463696  0.86514464  0.77540015    -0.89900
H808        H  0.93055084  0.85222669  0.87542106     0.17800
H809        H  0.89329198  0.76150967  0.77908196     0.17800
N810        N  0.88538598  0.75001040  0.87836821    -0.88900
H811        H  0.95894826  0.86918403  0.78834255     0.35200
H812        H  0.91834697  0.88422618  0.78582156     0.40300
H813        H  0.89991273  0.72962654  0.86834480     0.39900
H814        H  0.86079621  0.74827333  0.86458405     0.34800
C815        C  0.91621275  0.83204190  0.35176801    -0.26900
C816        C  0.90479861  0.80465153  0.38112233    -0.15000
C817        C  0.89884908  0.77600771  0.35613727     0.35600
C818        C  0.90472502  0.77559523  0.30355908    -0.26400
C819        C  0.91702444  0.80275009  0.27459780    -0.15600
C820        C  0.92244993  0.83149669  0.29945022     0.36700
N821        N  0.93380612  0.86088911  0.27290620    -0.89900
H822        H  0.92080126  0.85422847  0.36967949     0.17800
H823        H  0.90022346  0.75346401  0.28543596     0.17800
N824        N  0.88768592  0.74656766  0.38278739    -0.88900
H825        H  0.91716652  0.86819952  0.24272400     0.35200
H826        H  0.95818668  0.85648030  0.25891367     0.40300
H827        H  0.86409028  0.75137345  0.39922860     0.39900
H828        H  0.90535356  0.73840328  0.41118277     0.34800
C829        C  0.14768246  0.03372258  0.46087331    -0.26900
C830        C  0.13538064  0.00641148  0.48940230    -0.15000
C831        C  0.11374493  0.01109198  0.53112207     0.35600
C832        C  0.10498433  0.04298316  0.54365219    -0.26400
C833        C  0.11764500  0.07068488  0.51585169    -0.15600
C834        C  0.13965600  0.06576471  0.47415291     0.36700
N835        N  0.15445752  0.09306749  0.44605778    -0.89900
H836        H  0.16464371  0.02994748  0.42924068     0.17800
H837        H  0.08804243  0.04608007  0.57551296     0.17800
N838        N  0.10054165  0.98334338  0.56043122    -0.88900
H839        H  0.16931012  0.08527663  0.41602672     0.35200
H840        H  0.17094312  0.10315685  0.47085199     0.40300
H841        H  0.08496957  0.97164649  0.53627900     0.39900
H842        H  0.08520790  0.99082162  0.59015810     0.34800
C843        C  0.05197258  0.87377411  0.48273429    -0.26900
C844        C  0.07488604  0.88323669  0.51902477    -0.15000
C845        C  0.06396317  0.88319956  0.57050929     0.35600
C846        C  0.03091753  0.87452632  0.58384488    -0.26400
C847        C  0.00772524  0.86560960  0.54730532    -0.15600
C848        C  0.01901739  0.86513706  0.49582750     0.36700
N849        N  0.99776838  0.85667185  0.45527245    -0.89900
H850        H  0.05957031  0.87337618  0.44309126     0.17800
H851        H  0.02327036  0.87525462  0.62339752     0.17800
N852        N  0.08521317  0.89299208  0.60997874    -0.88900
H853        H  0.97660583  0.87294437  0.45199255     0.35200
H854        H  0.99026743  0.83274538  0.46341183     0.40300
H855        H  0.09282634  0.91658916  0.59924728     0.39900
H856        H  0.10650260  0.87692477  0.61384187     0.34800
C857        C  0.13463842  0.02625794  0.04966222    -0.26900
C858        C  0.13994381  0.02131674  0.99772775    -0.15000
C859        C  0.13642299  0.04914262  0.96177397     0.35600
C860        C  0.12654769  0.08027345  0.97833531    -0.26400
C861        C  0.12017545  0.08486498  0.03027990    -0.15600
C862        C  0.12491491  0.05713774  0.06606952     0.36700
N863        N  0.11932733  0.05978389  0.11952709    -0.89900
H864        H  0.13725779  0.00569086  0.07831365     0.17800
H865        H  0.12313835  0.10097611  0.95009355     0.17800
N866        N  0.14263645  0.04587251  0.90846340    -0.88900
H867        H  0.14165419  0.05203714  0.13915661     0.35200
H868        H  0.10046921  0.04391520  0.13171409     0.40300
H869        H  0.16834457  0.03942874  0.90454855     0.39900
H870        H  0.13831784  0.06830698  0.88700016     0.34800
C871        C  0.16918452  0.93561495  0.74839704    -0.26900
C872        C  0.19609081  0.92555518  0.78176967    -0.15000
C873        C  0.22469530  0.90863041  0.76231584     0.35600
C874        C  0.22581518  0.90247016  0.71068835    -0.26400
C875        C  0.19905339  0.91273070  0.67719634    -0.15600
C876        C  0.17031030  0.92937132  0.69668696     0.36700
N877        N  0.14210321  0.94017539  0.66440362    -0.89900
H878        H  0.14682578  0.94820107  0.76244987     0.17800
H879        H  0.24818748  0.88983471  0.69677425     0.17800
N880        N  0.25291693  0.89761412  0.79453157    -0.88900
H881        H  0.13876725  0.96553671  0.66479974     0.35200
H882        H  0.12048309  0.92966407  0.68020424     0.40300
H883        H  0.27459991  0.90829785  0.77926052     0.39900
H884        H  0.25626788  0.87227109  0.79378819     0.34800
C885        C  0.17822534  0.92979168  0.19724010    -0.26900
C886        C  0.20557508  0.91272036  0.17591451    -0.15000
C887        C  0.23145351  0.89802771  0.20875424     0.35600
C888        C  0.22948869  0.90146277  0.26162724    -0.26400
C889        C  0.20225629  0.91905882  0.28257844    -0.15600
C890        C  0.17632978  0.93317433  0.24962958     0.36700
N891        N  0.14783999  0.95116626  0.26882622    -0.89900
H892        H  0.15812101  0.94130400  0.17302369     0.17800
H893        H  0.24934879  0.89021536  0.28655596     0.17800
N894        N  0.25968674  0.87988139  0.18866976    -0.88900
H895        H  0.12581976  0.94001177  0.25902595     0.35200
H896        H  0.14713858  0.97483545  0.25061984     0.40300
H897        H  0.25036847  0.85891890  0.17487028     0.39900
H898        H  0.27692131  0.87175525  0.21771138     0.34800
C899        C  0.04842883  0.89323676  0.98952720    -0.26900
C900        C  0.07432250  0.89464707  0.02585975    -0.15000
C901        C  0.06855831  0.88162351  0.07653748     0.35600
C902        C  0.03714312  0.86840368  0.08985333    -0.26400
C903        C  0.01129651  0.86696303  0.05331149    -0.15600
C904        C  0.01752506  0.87950597  0.00223771     0.36700
N905        N  0.99284445  0.87955457  0.96228396    -0.89900
H906        H  0.05224222  0.90257339  0.95016720     0.17800
H907        H  0.03305507  0.85906626  0.12913638     0.17800
N908        N  0.09426317  0.88197726  0.11483205    -0.88900
H909        H  0.97064939  0.89193983  0.97315853     0.35200
H910        H  0.98789562  0.85542921  0.95628891     0.40300
H911        H  0.09974280  0.85787225  0.12961877     0.39900
H912        H  0.08445894  0.89501910  0.14444969     0.34800
C913        C  0.53517053  0.62958861  0.46057614    -0.26900
C914        C  0.50917036  0.63024671  0.49706901    -0.15000
C915        C  0.51762874  0.62140699  0.54902239     0.35600
C916        C  0.55117649  0.61210892  0.56309302    -0.26400
C917        C  0.57715450  0.61094447  0.52663122    -0.15600
C918        C  0.56878121  0.61997673  0.47465951     0.36700
N919        N  0.59397852  0.61855536  0.43556078    -0.89900
H920        H  0.52943030  0.63633190  0.42060407     0.17800
H921        H  0.55666232  0.60510902  0.60307582     0.17800
N922        N  0.49216414  0.62098044  0.58791177    -0.88900
H923        H  0.59504647  0.64181436  0.41627422     0.35200
H924        H  0.58626021  0.60251628  0.40948143     0.40300
H925        H  0.49902835  0.63674073  0.61494735     0.39900
H926        H  0.49192770  0.59732078  0.60601821     0.34800
C927        C  0.31929887  0.79340649  0.42825387    -0.26900
C928        C  0.32992139  0.77423209  0.47259074    -0.15000
C929        C  0.31232063  0.77811546  0.51895312     0.35600
C930        C  0.28785355  0.80370319  0.52121614    -0.26400
C931        C  0.27963952  0.82531466  0.47821213    -0.15600
C932        C  0.29443241  0.81885049  0.43045975     0.36700
N933        N  0.28692547  0.83915203  0.38436694    -0.89900
H934        H  0.33260788  0.79069177  0.39262028     0.17800
H935        H  0.27642531  0.80773069  0.55785259     0.17800
N936        N  0.32004885  0.75774133  0.56520347    -0.88900
H937        H  0.29292134  0.86314227  0.38949188     0.35200
H938        H  0.26104370  0.83857429  0.37673758     0.40300
H939        H  0.33598442  0.73778690  0.55765501     0.39900
H940        H  0.29754288  0.74757844  0.57821212     0.34800
C941        C  0.35315928  0.56087239  0.48240078    -0.26900
C942        C  0.37604923  0.57344064  0.51560378    -0.15000
C943        C  0.38676867  0.55375605  0.55980718     0.35600
C944        C  0.37477111  0.52205694  0.56940425    -0.26400
C945        C  0.35233879  0.50884909  0.53539959    -0.15600
C946        C  0.34122741  0.52928245  0.49151708     0.36700
N947        N  0.31830996  0.51882683  0.45468728    -0.89900
H948        H  0.34495679  0.57563326  0.44802912     0.17800
H949        H  0.38396607  0.50735222  0.60321302     0.17800
N950        N  0.41105128  0.56469756  0.59420835    -0.88900
H951        H  0.29584527  0.51235462  0.47309430     0.35200
H952        H  0.32941908  0.49874584  0.43805172     0.40300
H953        H  0.40115807  0.58612007  0.60847980     0.39900
H954        H  0.43300064  0.57021958  0.57360626     0.34800
C955        C  0.57252477  0.62259559  0.97896556    -0.26900
C956        C  0.57925717  0.61341608  0.03111530    -0.15000
C957        C  0.55233556  0.61699249  0.06616288     0.35600
C958        C  0.51984559  0.62854365  0.04872153    -0.26400
C959        C  0.51285156  0.63685330  0.99650858    -0.15600
C960        C  0.53996466  0.63434892  0.96138419     0.36700
N961        N  0.53456185  0.64388747  0.90792870    -0.89900
H962        H  0.59267451  0.62010391  0.95136974     0.17800
H963        H  0.49972852  0.63045587  0.07653589     0.17800
N964        N  0.55767295  0.60899714  0.11982062    -0.88900
H965        H  0.55680776  0.64018935  0.88719813     0.35200
H966        H  0.52869489  0.66905279  0.90417149     0.40300
H967        H  0.54099098  0.59100045  0.13226838     0.39900
H968        H  0.55152727  0.62986290  0.13870641     0.34800
C969        C  0.31165284  0.78988480  0.00664420    -0.26900
C970        C  0.33039315  0.78683540  0.96150695    -0.15000
C971        C  0.32156429  0.80847453  0.91810642     0.35600
C972        C  0.29650327  0.83418170  0.92241313    -0.26400
C973        C  0.28046575  0.83903267  0.96944562    -0.15600
C974        C  0.28699045  0.81545342  0.01103730     0.36700
N975        N  0.26960242  0.81852238  0.05865140    -0.89900
H976        H  0.31800196  0.77339301  0.04006577     0.17800
H977        H  0.29158890  0.85203855  0.89014878     0.17800
N978        N  0.33945678  0.80567327  0.87087486    -0.88900
H979        H  0.27735556  0.79951129  0.08574491     0.35200
H980        H  0.24384610  0.81591744  0.05201874     0.40300
H981        H  0.36467503  0.81092795  0.87691065     0.39900
H982        H  0.32992133  0.82322861  0.84269848     0.34800
C983        C  0.42619471  0.67199166  0.75082777    -0.26900
C984        C  0.41755592  0.70129644  0.77296010    -0.15000
C985        C  0.40537421  0.72864412  0.74132814     0.35600
C986        C  0.40221858  0.72632637  0.68867281    -0.26400
C987        C  0.41109052  0.69712405  0.66629376    -0.15600
C988        C  0.42318080  0.66967243  0.69805851     0.36700
N989        N  0.43265824  0.63946655  0.67724759    -0.89900
H990        H  0.43535695  0.65053984  0.77460771     0.17800
H991        H  0.39312467  0.74791840  0.66518602     0.17800
N992        N  0.39687347  0.75907325  0.76211593    -0.88900
H993        H  0.41774752  0.62130858  0.69450888     0.35200
H994        H  0.45787525  0.63331344  0.68725073     0.40300
H995        H  0.37158407  0.76562279  0.75308364     0.39900
H996        H  0.41191559  0.77689702  0.74418873     0.34800
C997        C  0.40455600  0.73061801  0.19125796    -0.26900
C998        C  0.40967445  0.70204367  0.16551409    -0.15000
C999        C  0.41597468  0.67189726  0.19513104     0.35600
C1000       C  0.41705504  0.67107368  0.24829847    -0.26400
C1001       C  0.41247933  0.69955779  0.27391310    -0.15600
C1002       C  0.40579444  0.72974329  0.24472250     0.36700
N1003       N  0.40102690  0.75997918  0.26777976    -0.89900
H1004       H  0.39997436  0.75410415  0.16973573     0.17800
H1005       H  0.42168813  0.64759470  0.26985909     0.17800
N1006       N  0.42103829  0.64147307  0.17290050    -0.88900
H1007       H  0.42223675  0.76323633  0.29019594     0.35200
H1008       H  0.37957039  0.75883593  0.29101968     0.40300
H1009       H  0.44287160  0.64216561  0.15044680     0.39900
H1010       H  0.39998749  0.63824426  0.15032064     0.34800
C1011       C  0.36434416  0.53606570  0.07091313    -0.26900
C1012       C  0.35615511  0.51682572  0.03101610    -0.15000
C1013       C  0.35820292  0.53059215  0.98003692     0.35600
C1014       C  0.36811734  0.56284149  0.97037100    -0.26400
C1015       C  0.37785018  0.58162157  0.00993180    -0.15600
C1016       C  0.37529933  0.56815475  0.06095055     0.36700
N1017       N  0.38491873  0.58643266  0.10233721    -0.89900
H1018       H  0.36278295  0.52583815  0.11023540     0.17800
H1019       H  0.36953658  0.57294513  0.93096865     0.17800
N1020       N  0.35180827  0.51146948  0.93795269    -0.88900
H1021       H  0.38390531  0.57213969  0.13718426     0.35200
H1022       H  0.36659848  0.60544511  0.10436001     0.40300
H1023       H  0.37096699  0.49302456  0.93808235     0.39900
H1024       H  0.35376882  0.52549767  0.90300910     0.34800
C1025       C  0.51238248  0.84415058  0.41709670    -0.26900
C1026       C  0.49331455  0.86818262  0.38669640    -0.15000
C1027       C  0.46283828  0.85916022  0.36440065     0.35600
C1028       C  0.45031796  0.82810069  0.37819427    -0.26400
C1029       C  0.46731404  0.80610003  0.41459176    -0.15600
C1030       C  0.49936718  0.81371838  0.43209028     0.36700
N1031       N  0.51808632  0.79117426  0.46733774    -0.89900
H1032       H  0.53599534  0.85030134  0.43400423     0.17800
H1033       H  0.42584625  0.82230567  0.36377354     0.17800
N1034       N  0.44291284  0.88164545  0.33068521    -0.88900
H1035       H  0.52212635  0.80270181  0.50066365     0.35200
H1036       H  0.54166776  0.78592947  0.45113349     0.40300
H1037       H  0.45795622  0.88913810  0.29947566     0.39900
H1038       H  0.43575678  0.90210457  0.34981805     0.34800
C1039       C  0.33765510  0.97195712  0.41779270    -0.26900
C1040       C  0.32851942  0.94023267  0.43510089    -0.15000
C1041       C  0.35335064  0.91453773  0.43799766     0.35600
C1042       C  0.38706328  0.92103894  0.42730075    -0.26400
C1043       C  0.39697995  0.95293762  0.41343520    -0.15600
C1044       C  0.37188157  0.97855927  0.40652051     0.36700
N1045       N  0.38140826  0.01127564  0.39153106    -0.89900
H1046       H  0.31846619  0.99172544  0.41547130     0.17800
H1047       H  0.40596985  0.90103239  0.43229252     0.17800
N1048       N  0.34454233  0.88176481  0.45361493    -0.88900
H1049       H  0.36008169  0.02736714  0.38976614     0.35200
H1050       H  0.39094616  0.01151744  0.35433963     0.40300
H1051       H  0.35836461  0.87370130  0.48659371     0.39900
H1052       H  0.35212510  0.86695658  0.42479455     0.34800
C1053       C  0.50737115  0.85624336  0.92251898    -0.26900
C1054       C  0.48851198  0.87760711  0.88768658    -0.15000
C1055       C  0.46313217  0.86501238  0.85819122     0.35600
C1056       C  0.45296619  0.83315442  0.87084622    -0.26400
C1057       C  0.46797228  0.81395226  0.91232473    -0.15600
C1058       C  0.49726382  0.82442241  0.93530356     0.36700
N1059       N  0.51510992  0.80348390  0.97404282    -0.89900
H1060       H  0.52755938  0.86562531  0.94411959     0.17800
H1061       H  0.43122724  0.82469452  0.85158961     0.17800
N1062       N  0.44543151  0.88483621  0.81842303    -0.88900
H1063       H  0.53584082  0.81508765  0.98760893     0.35200
H1064       H  0.52489944  0.78308096  0.95675667     0.40300
H1065       H  0.46321270  0.89292720  0.79130300     0.39900
H1066       H  0.43426752  0.90518802  0.83407734     0.34800
C1067       C  0.36688159  0.99903726  0.93537469    -0.26900
C1068       C  0.38371574  0.98079963  0.89953463    -0.15000
C1069       C  0.36521455  0.96078533  0.87005318     0.35600
C1070       C  0.33141072  0.95501525  0.88326315    -0.26400
C1071       C  0.31635378  0.96914543  0.92514895    -0.15600
C1072       C  0.33331947  0.99360994  0.94827861     0.36700
N1073       N  0.31754268  0.01265278  0.98579459    -0.89900
H1074       H  0.38085162  0.01535337  0.95693602     0.17800
H1075       H  0.31802432  0.93713064  0.86408870     0.17800
N1076       N  0.38164753  0.94412744  0.83029276    -0.88900
H1077       H  0.31254253  0.99764833  0.01876582     0.35200
H1078       H  0.29473600  0.02319922  0.97068674     0.40300
H1079       H  0.38891099  0.96189736  0.80202400     0.39900
H1080       H  0.36466245  0.92967190  0.81306413     0.34800
C1081       C  0.47994569  0.97827051  0.62466484    -0.26900
C1082       C  0.50365313  0.99596807  0.59473514    -0.15000
C1083       C  0.52838790  0.01248976  0.62003146     0.35600
C1084       C  0.52791032  0.01197049  0.67334092    -0.26400
C1085       C  0.50316894  0.99560437  0.70311174    -0.15600
C1086       C  0.47926454  0.97800393  0.67793112     0.36700
N1087       N  0.45368908  0.95991731  0.70478427    -0.89900
H1088       H  0.46110481  0.96475004  0.60660229     0.17800
H1089       H  0.54694057  0.02525429  0.69141978     0.17800
N1090       N  0.55431066  0.03010132  0.59318024    -0.88900
H1091       H  0.43811192  0.97596886  0.72416849     0.35200
H1092       H  0.46542352  0.94237721  0.73095662     0.40300
H1093       H  0.54296664  0.04896976  0.56892468     0.39900
H1094       H  0.56845253  0.01409400  0.57165927     0.34800
C1095       C  0.46735473  0.99293994  0.18154763    -0.26900
C1096       C  0.49904979  0.99806983  0.20259744    -0.15000
C1097       C  0.52549218  0.00825140  0.16919057     0.35600
C1098       C  0.51985839  0.01283381  0.11631617    -0.26400
C1099       C  0.48849026  0.00704625  0.09516539    -0.15600
C1100       C  0.46183258  0.99731039  0.12840923     0.36700
N1101       N  0.42898627  0.99203295  0.10858022    -0.89900
H1102       H  0.44658983  0.98579493  0.20639721     0.17800
H1103       H  0.54071114  0.01985242  0.09154701     0.17800
N1104       N  0.55855573  0.01331080  0.18841585    -0.88900
H1105       H  0.41140455  0.00775377  0.12508394     0.35200
H1106       H  0.42297989  0.96800916  0.12007018     0.40300
H1107       H  0.56454679  0.03738286  0.17724002     0.39900
H1108       H  0.57592868  0.99766774  0.17133055     0.34800
C1109       C  0.46986395  0.35390935  0.51979815    -0.26900
C1110       C  0.48137597  0.36656251  0.47173945    -0.15000
C1111       C  0.45836967  0.38590908  0.43928227     0.35600
C1112       C  0.42543201  0.39360978  0.45669546    -0.26400
C1113       C  0.41484017  0.38232496  0.50603228    -0.15600
C1114       C  0.43710343  0.36128569  0.53687102     0.36700
N1115       N  0.42648637  0.34689433  0.58557636    -0.89900
H1116       H  0.48639529  0.33800873  0.54481926     0.17800
H1117       H  0.40852432  0.40941614  0.43209410     0.17800
N1118       N  0.46834632  0.39838134  0.38916422    -0.88900
H1119       H  0.44296617  0.35370418  0.61348401     0.35200
H1120       H  0.42884559  0.32147746  0.58506962     0.40300
H1121       H  0.46534635  0.42387451  0.38680137     0.39900
H1122       H  0.45188617  0.38985552  0.36270393     0.34800
C1123       C  0.51798162  0.16558224  0.47385060    -0.26900
C1124       C  0.53486731  0.18637388  0.43770854    -0.15000
C1125       C  0.54154799  0.17530960  0.38892209     0.35600
C1126       C  0.53287997  0.14398086  0.37852913    -0.26400
C1127       C  0.51784519  0.12229417  0.41550291    -0.15600
C1128       C  0.50954823  0.13392324  0.46354435     0.36700
N1129       N  0.49285384  0.11439606  0.50285767    -0.89900
H1130       H  0.51210528  0.17362254  0.51124707     0.17800
H1131       H  0.53959849  0.13616962  0.34129481     0.17800
N1132       N  0.55886280  0.19437672  0.34974560    -0.88900
H1133       H  0.50867575  0.09414145  0.51486859     0.35200
H1134       H  0.47045393  0.10653794  0.48789098     0.40300
H1135       H  0.58236835  0.20004408  0.36391002     0.39900
H1136       H  0.54436902  0.21585871  0.33956494     0.34800
C1137       C  0.62349602  0.42776731  0.53628731    -0.26900
C1138       C  0.61292476  0.42592356  0.48549664    -0.15000
C1139       C  0.61457976  0.45450301  0.45120827     0.35600
C1140       C  0.62703532  0.48337123  0.46801950    -0.26400
C1141       C  0.63736287  0.48510271  0.51890193    -0.15600
C1142       C  0.63539539  0.45676536  0.55317447     0.36700
N1143       N  0.64585253  0.45702269  0.60534220    -0.89900
H1144       H  0.62239975  0.40655049  0.56362183     0.17800
H1145       H  0.62777310  0.50485750  0.44117792     0.17800
N1146       N  0.60329162  0.45474819  0.39932712    -0.88900
H1147       H  0.66508589  0.43888722  0.61259745     0.35200
H1148       H  0.62526529  0.45093263  0.62871286     0.26300
H1149       H  0.62346328  0.46110001  0.37527291     0.39900
H1150       H  0.58396423  0.47291694  0.39317191     0.34800
C1151       C  0.43752154  0.40493952  0.96723501    -0.26900
C1152       C  0.42453388  0.39106298  0.01345001    -0.15000
C1153       C  0.44342799  0.36545462  0.04143599     0.35600
C1154       C  0.47456434  0.35433059  0.02263238    -0.26400
C1155       C  0.48785812  0.36842676  0.97666223    -0.15600
C1156       C  0.46900448  0.39421980  0.94888404     0.36700
N1157       N  0.48172221  0.41101295  0.90328724    -0.89900
H1158       H  0.42345648  0.42487657  0.94582540     0.17800
H1159       H  0.48869325  0.33465326  0.04453118     0.17800
N1160       N  0.43142309  0.34980296  0.08846943    -0.88900
H1161       H  0.48477694  0.39448450  0.87535433     0.35200
H1162       H  0.50522321  0.42003454  0.91142885     0.40300
H1163       H  0.40736847  0.34136363  0.08225392     0.39900
H1164       H  0.42972660  0.36684275  0.11579502     0.34800
C1165       C  0.50304857  0.13813483  0.96454326    -0.26900
C1166       C  0.50489622  0.13106797  0.91314688    -0.15000
C1167       C  0.51397058  0.15626446  0.87598351     0.35600
C1168       C  0.52436270  0.18608231  0.89131725    -0.26400
C1169       C  0.52566728  0.19191152  0.94311558    -0.15600
C1170       C  0.51295430  0.16823900  0.97973601     0.36700
N1171       N  0.51043569  0.17430550  0.03258595    -0.89900
H1172       H  0.49517534  0.11976654  0.99367155     0.17800
H1173       H  0.53294090  0.20417059  0.86229336     0.17800
N1174       N  0.51391056  0.15154888  0.82252724    -0.88900
H1175       H  0.52489503  0.15605922  0.05398973     0.35200
H1176       H  0.48515139  0.17235477  0.04365709     0.40300
H1177       H  0.53838989  0.15473627  0.80844871     0.39900
H1178       H  0.49775861  0.16964752  0.80393942     0.34800
C1179       C  0.59874448  0.27964963  0.69128282    -0.26900
C1180       C  0.58112204  0.30320265  0.65791468    -0.15000
C1181       C  0.55881587  0.32643957  0.67914349     0.35600
C1182       C  0.55590137  0.32636866  0.73208291    -0.26400
C1183       C  0.57428712  0.30351713  0.76548927    -0.15600
C1184       C  0.59537307  0.27932604  0.74442320     0.36700
N1185       N  0.61419367  0.25449663  0.77560394    -0.89900
H1186       H  0.61546087  0.26121135  0.67608606     0.17800
H1187       H  0.53906226  0.34475232  0.74720592     0.17800
N1188       N  0.53818568  0.35013025  0.64847119    -0.88900
H1189       H  0.59720965  0.24044029  0.79745751     0.35200
H1190       H  0.63016238  0.26564916  0.79985174     0.40300
H1191       H  0.52290892  0.33797839  0.62453234     0.39900
H1192       H  0.55376008  0.36574775  0.62669171     0.34800
C1193       C  0.60252041  0.28207567  0.19316205    -0.26900
C1194       C  0.58523724  0.30529174  0.15927561    -0.15000
C1195       C  0.56324348  0.32932606  0.17921880     0.35600
C1196       C  0.55862852  0.32895076  0.23180924    -0.26400
C1197       C  0.57542895  0.30534724  0.26576494    -0.15600
C1198       C  0.59806004  0.28181719  0.24580586     0.36700
N1199       N  0.61728938  0.25753509  0.27745665    -0.89900
H1200       H  0.61964508  0.26367113  0.17870070     0.17800
H1201       H  0.54148553  0.34741599  0.24605414     0.17800
N1202       N  0.54447720  0.35398129  0.14753899    -0.88900
H1203       H  0.60068495  0.24239091  0.29800222     0.35200
H1204       H  0.63228777  0.26910698  0.30253460     0.40300
H1205       H  0.52902279  0.34272629  0.12269327     0.39900
H1206       H  0.56136754  0.36868182  0.12667910     0.34800
C1207       C  0.63604488  0.45631763  0.06116617    -0.26900
C1208       C  0.63456283  0.48436688  0.02640465    -0.15000
C1209       C  0.62137195  0.48200029  0.97705046     0.35600
C1210       C  0.61082038  0.45193100  0.96298702    -0.26400
C1211       C  0.61317733  0.42358747  0.99706428    -0.15600
C1212       C  0.62554050  0.42611027  0.04706473     0.36700
N1213       N  0.62721812  0.39829144  0.08395275    -0.89900
H1214       H  0.64583298  0.45765776  0.09943663     0.17800
H1215       H  0.60101567  0.45085899  0.92467426     0.17800
N1216       N  0.61817334  0.51017909  0.94104296    -0.88900
H1217       H  0.61275111  0.40400438  0.11562961     0.35200
H1218       H  0.65237049  0.39414641  0.09592890     0.40300
H1219       H  0.59269514  0.51387358  0.93056115     0.39900
H1220       H  0.63203421  0.50511431  0.90847946     0.34800
C1221       C  0.89118416  0.94908670  0.47817948    -0.26900
C1222       C  0.87978378  0.93553028  0.52560951    -0.15000
C1223       C  0.86047466  0.95555901  0.55687335     0.35600
C1224       C  0.85307522  0.98851710  0.54066611    -0.26400
C1225       C  0.86483741  0.00253859  0.49355835    -0.15600
C1226       C  0.88420839  0.98235693  0.46211680     0.36700
N1227       N  0.89768624  0.99557619  0.41449590    -0.89900
H1228       H  0.90674049  0.93415520  0.45437179     0.17800
H1229       H  0.83801670  0.00316757  0.56550115     0.17800
N1230       N  0.84812962  0.94239714  0.60532354    -0.88900
H1231       H  0.88863583  0.98238250  0.38546165     0.35200
H1232       H  0.92403325  0.99200587  0.41592781     0.40300
H1233       H  0.82174391  0.94560604  0.60509204     0.39900
H1234       H  0.85754408  0.95595102  0.63365978     0.34800
C1235       C  0.66936456  0.05576344  0.38385007    -0.26900
C1236       C  0.67961296  0.04871310  0.43498145    -0.15000
C1237       C  0.65857145  0.02997470  0.46838142     0.35600
C1238       C  0.62683112  0.02128839  0.45155865    -0.26400
C1239       C  0.61516005  0.03082567  0.40166027    -0.15600
C1240       C  0.63750361  0.04714482  0.36695188     0.36700
N1241       N  0.62758456  0.05641191  0.31507297    -0.89900
H1242       H  0.68532594  0.06966549  0.35731888     0.17800
H1243       H  0.61068070  0.00812689  0.47872576     0.17800
N1244       N  0.66904290  0.01999537  0.51981373    -0.88900
H1245       H  0.64527840  0.04578418  0.29110413     0.35200
H1246       H  0.62855142  0.08180868  0.30858010     0.40300
H1247       H  0.66912099  0.99448339  0.52492681     0.39900
H1248       H  0.65105666  0.02936863  0.54460429     0.34800
C1249       C  0.66932173  0.21009898  0.41441198    -0.26900
C1250       C  0.66582600  0.22880793  0.45677871    -0.15000
C1251       C  0.69122739  0.22531002  0.49507764     0.35600
C1252       C  0.71605450  0.19989087  0.49434612    -0.26400
C1253       C  0.71696862  0.17842552  0.45552186    -0.15600
C1254       C  0.69464364  0.18478380  0.41366854     0.36700
N1255       N  0.69544970  0.16366106  0.37298298    -0.89900
H1256       H  0.65029481  0.21275817  0.38445915     0.17800
H1257       H  0.73349160  0.19554242  0.52630709     0.17800
N1258       N  0.69144144  0.24586398  0.53677029    -0.88900
H1259       H  0.69885654  0.17800047  0.33866654     0.35200
H1260       H  0.67190581  0.15322790  0.37138383     0.40300
H1261       H  0.67348135  0.26528154  0.53112229     0.39900
H1262       H  0.71483186  0.25672800  0.53624086     0.34800
C1263       C  0.94358047  0.14700063  0.47239348    -0.26900
C1264       C  0.92347165  0.12969509  0.50856949    -0.15000
C1265       C  0.93688316  0.12099823  0.55796488     0.35600
C1266       C  0.97042043  0.12863064  0.56909630    -0.26400
C1267       C  0.99121982  0.14471969  0.53206212    -0.15600
C1268       C  0.97686855  0.15454363  0.48326352     0.36700
N1269       N  0.99517449  0.17215681  0.44357205    -0.89900
H1270       H  0.93354936  0.15412294  0.43444681     0.17800
H1271       H  0.98066498  0.12098620  0.60670108     0.17800
N1272       N  0.91729896  0.10277413  0.59570789    -0.88900
H1273       H  0.01570646  0.15744361  0.43258870     0.35200
H1274       H  0.00378529  0.19337562  0.45745378     0.40300
H1275       H  0.89719340  0.11820182  0.60623346     0.39900
H1276       H  0.93158523  0.09650689  0.62888742     0.34800
C1277       C  0.88687941  0.93675911  0.98334228    -0.26900
C1278       C  0.88050609  0.92467486  0.03379009    -0.15000
C1279       C  0.86265843  0.94500675  0.06652592     0.35600
C1280       C  0.85221914  0.97708822  0.04837486    -0.26400
C1281       C  0.85896712  0.98958561  0.99799205    -0.15600
C1282       C  0.87659938  0.96889952  0.96528738     0.36700
N1283       N  0.88495407  0.98046633  0.91400151    -0.89900
H1284       H  0.90096452  0.92153885  0.95816508     0.17800
H1285       H  0.83875374  0.99240829  0.07402594     0.17800
N1286       N  0.85503546  0.93294773  0.11813925    -0.88900
H1287       H  0.87429145  0.96519037  0.88916123     0.35200
H1288       H  0.91126847  0.97842255  0.91007950     0.40300
H1289       H  0.83859674  0.91389446  0.11625893     0.39900
H1290       H  0.84206383  0.95097070  0.13733748     0.34800
C1291       C  0.61764475  0.02085063  0.94937563    -0.26900
C1292       C  0.60390711  0.03728874  0.90445606    -0.15000
C1293       C  0.62500397  0.05748229  0.87298969     0.35600
C1294       C  0.65828164  0.06200815  0.88816821    -0.26400
C1295       C  0.67113838  0.04741634  0.93476061    -0.15600
C1296       C  0.65093383  0.02569076  0.96468539     0.36700
N1297       N  0.66394250  0.00876735  0.01104235    -0.89900
H1298       H  0.60221573  0.00486323  0.97362588     0.17800
H1299       H  0.67335857  0.07877095  0.86469507     0.17800
N1300       N  0.61235347  0.07505989  0.82688938    -0.88900
H1301       H  0.66268281  0.98366706  0.00790845     0.35200
H1302       H  0.64817173  0.01496020  0.04107871     0.40300
H1303       H  0.62766838  0.06845991  0.79658860     0.39900
H1304       H  0.61449612  0.10005063  0.83022277     0.34800
C1305       C  0.66816756  0.20664547  0.91813375    -0.26900
C1306       C  0.66321735  0.22342639  0.96229306    -0.15000
C1307       C  0.68636355  0.21685103  0.00318873     0.35600
C1308       C  0.71096667  0.19118291  0.00214613    -0.26400
C1309       C  0.71336688  0.17175747  0.96073887    -0.15600
C1310       C  0.69285799  0.18078625  0.91710823     0.36700
N1311       N  0.69468446  0.16254397  0.87302905    -0.89900
H1312       H  0.65080147  0.21151384  0.88618628     0.17800
H1313       H  0.72671908  0.18488465  0.03565154     0.17800
N1314       N  0.68382890  0.23519959  0.04717576    -0.88900
H1315       H  0.68966385  0.13823716  0.88424936     0.35200
H1316       H  0.71937683  0.16325190  0.85888227     0.40300
H1317       H  0.70698920  0.24584245  0.05189826     0.39900
H1318       H  0.67989054  0.21893272  0.07925930     0.34800
C1319       C  0.81797891  0.06947924  0.74814453    -0.26900
C1320       C  0.79441935  0.08775490  0.77576165    -0.15000
C1321       C  0.77200939  0.11087706  0.74866180     0.35600
C1322       C  0.77381012  0.11504876  0.69506295    -0.26400
C1323       C  0.79696743  0.09630223  0.66766559    -0.15600
C1324       C  0.81937573  0.07341629  0.69475013     0.36700
N1325       N  0.84303538  0.05341340  0.66835302    -0.89900
H1326       H  0.83548249  0.05165582  0.76795532     0.17800
H1327       H  0.75651311  0.13272463  0.67451077     0.17800
N1328       N  0.74758413  0.13014203  0.77523046    -0.88900
H1329       H  0.83813492  0.02891043  0.67830920     0.35200
H1330       H  0.86740043  0.05747761  0.68106184     0.40300
H1331       H  0.72946654  0.11437582  0.79054777     0.39900
H1332       H  0.73458616  0.14727873  0.74976611     0.34800
C1333       C  0.81156783  0.06602145  0.19449363    -0.26900
C1334       C  0.79190569  0.09101411  0.16751029    -0.15000
C1335       C  0.77361587  0.11433930  0.19474943     0.35600
C1336       C  0.77595138  0.11233121  0.24832586    -0.26400
C1337       C  0.79624471  0.08771580  0.27515091    -0.15600
C1338       C  0.81359833  0.06380225  0.24795787     0.36700
N1339       N  0.83289352  0.03709388  0.27467626    -0.89900
H1340       H  0.82486636  0.04762617  0.17382024     0.17800
H1341       H  0.76272384  0.13071560  0.26909948     0.17800
N1342       N  0.75328159  0.14030784  0.16806675    -0.88900
H1343       H  0.84422034  0.02185310  0.24896838     0.35200
H1344       H  0.81593621  0.02295918  0.29647619     0.40300
H1345       H  0.76960863  0.15523933  0.14641394     0.39900
H1346       H  0.74117314  0.15499406  0.19384912     0.34800
C1347       C  0.94314449  0.12115969  0.96806350    -0.26900
C1348       C  0.92004649  0.11275539  0.00732573    -0.15000
C1349       C  0.93021334  0.11494589  0.05861455     0.35600
C1350       C  0.96238062  0.12592528  0.06889080    -0.26400
C1351       C  0.98514573  0.13497528  0.02933463    -0.15600
C1352       C  0.97509188  0.13213798  0.97813934     0.36700
N1353       N  0.99667666  0.13956269  0.93518896    -0.89900
H1354       H  0.93630306  0.11955452  0.92842255     0.17800
H1355       H  0.96943718  0.12760714  0.10842322     0.17800
N1356       N  0.90903851  0.10554297  0.10116255    -0.88900
H1357       H  0.01949320  0.12576013  0.94036291     0.35200
H1358       H  0.00117568  0.16449413  0.93217570     0.40300
H1359       H  0.90249104  0.08137459  0.09873103     0.39900
H1360       H  0.88711794  0.12080781  0.09948418     0.34800
loop_ 
_geom_bond_atom_site_label_1 
_geom_bond_atom_site_label_2 
_geom_bond_distance 
_geom_bond_site_symmetry_2 
_ccdc_geom_bond_type 
O1           Ni7   1.917       .  S
O1           C22   1.268       .  A
O2          Ni25   1.906       .  S
O2           C11   1.269       .  A
O3           Ni7   1.890       .  S
O3          Ni25   1.896   1_554  S
O3          Ni19   1.917       .  S
O3           H26   0.966       .  S
C4           O21   1.280   1_556  A
C4           O13   1.279       .  A
C4         C1348   1.493   1_556  S
O5          Ni24   1.920       .  S
O5           C11   1.271       .  A
O6          Ni24   1.906       .  S
O6            C8   1.266       .  A
Ni7          O10   1.914       .  S
Ni7          O12   1.906       .  S
C8           O18   1.273   1_556  A
C8         C1281   1.497   1_545  S
O9          Ni25   1.934       .  S
O9           C15   1.282       .  A
O10          C15   1.276   1_554  A
C11        C1320   1.485       .  S
O12          C14   1.269   1_554  A
O13         Ni24   1.922       .  S
C14          O20   1.277       .  A
C14        C1309   1.488       .  S
C15        C1295   1.484       .  S
H16          O17   0.967       .  S
O17         Ni25   1.915       .  S
O17         Ni19   1.899   1_556  S
O17         Ni24   1.901       .  S
O18         Ni19   1.936       .  S
Ni19         O23   1.908       .  S
Ni19         O21   1.927       .  S
O20         Ni25   1.949       .  S
C22          O23   1.270       .  A
C22        C1334   1.477       .  S
O27         Ni33   1.920       .  S
O27          C48   1.269       .  A
O28         Ni51   1.905       .  S
O28          C37   1.269       .  A
O29         Ni33   1.897       .  S
O29         Ni51   1.899       .  S
O29         Ni45   1.919       .  S
O29          H52   0.966       .  S
C30          O47   1.278       .  A
C30          O39   1.276       .  A
C30        C1264   1.493       .  S
O31         Ni50   1.923       .  S
O31          C37   1.270       .  A
O32         Ni50   1.911       .  S
O32          C34   1.267       .  A
Ni33         O36   1.922       .  S
Ni33         O38   1.897       .  S
C34          O44   1.271       .  A
C34        C1225   1.496       .  S
O35         Ni51   1.930       .  S
O35          C41   1.280       .  A
O36          C41   1.278       .  A
C37        C1337   1.478       .  S
O38          C40   1.267       .  A
O39         Ni50   1.926       .  S
C40          O46   1.276       .  A
C40        C1253   1.482       .  S
C41        C1236   1.491       .  S
H42          O43   0.966       .  S
O43         Ni51   1.922       .  S
O43         Ni45   1.910       .  S
O43         Ni50   1.914       .  S
O44         Ni45   1.927       .  S
Ni45         O49   1.904       .  S
Ni45         O47   1.931       .  S
O46         Ni51   1.946       .  S
C48          O49   1.267       .  A
C48        C1323   1.480       .  S
O53         Ni59   1.922       .  S
O53          C74   1.273       .  A
O54         Ni77   1.881       .  S
O54          C63   1.257       .  A
O55         Ni59   1.920       .  S
O55         Ni77   1.902   1_556  S
O55         Ni71   1.926       .  S
O55          H78   0.967       .  S
C56          O73   1.281       .  A
C56          O65   1.275   1_556  A
C56        C1169   1.492       .  S
O57         Ni76   1.920       .  S
O57          C63   1.268       .  A
O58         Ni76   1.901       .  S
O58          C60   1.269   1_554  A
Ni59         O62   1.942       .  S
Ni59         O64   1.909       .  S
C60          O70   1.277       .  A
C60        C1306   1.491       .  S
O61         Ni77   1.903       .  S
O61          C67   1.268   1_554  A
O62          C67   1.276       .  A
C63        C1194   1.473       .  S
O64          C66   1.268       .  A
O65         Ni76   1.916       .  S
C66          O72   1.270       .  A
C66        C1155   1.481       .  S
C67        C1211   1.491       .  S
H68          O69   0.966   1_554  S
O69         Ni77   1.908   1_556  S
O69         Ni71   1.899       .  S
O69         Ni76   1.906   1_556  S
O70         Ni71   1.949       .  S
Ni71         O75   1.904       .  S
Ni71         O73   1.928       .  S
O72         Ni77   1.931   1_556  S
C74          O75   1.270       .  A
C74        C1183   1.485       .  S
O79         Ni85   1.923       .  S
O79         C100   1.271       .  A
O80        Ni103   1.899       .  S
O80          C89   1.266       .  A
O81         Ni85   1.921       .  S
O81        Ni103   1.898       .  S
O81         Ni97   1.926       .  S
O81         H104   0.967       .  S
C82          O99   1.279       .  A
C82          O91   1.277       .  A
C82        C1124   1.496       .  S
O83        Ni102   1.922       .  S
O83          C89   1.270       .  A
O84        Ni102   1.907       .  S
O84          C86   1.270       .  A
Ni85         O88   1.934       .  S
Ni85         O90   1.916       .  S
C86          O96   1.272       .  A
C86        C1250   1.484       .  S
O87        Ni103   1.932       .  S
O87          C93   1.281       .  A
O88          C93   1.277       .  A
C89        C1180   1.485       .  S
O90          C92   1.268       .  A
O91        Ni102   1.927       .  S
C92          O98   1.270       .  A
C92        C1110   1.494       .  S
C93        C1138   1.507       .  S
H94          O95   0.966       .  S
O95        Ni103   1.925       .  S
O95         Ni97   1.892       .  S
O95        Ni102   1.907       .  S
O96         Ni97   1.934       .  S
Ni97        O101   1.884       .  S
Ni97         O99   1.929       .  S
O98        Ni103   1.918       .  S
C100        O101   1.261       .  A
C100       C1197   1.477       .  S
O105       Ni111   1.912   1_554  S
O105        C126   1.263   1_565  A
O106       Ni129   1.914       .  S
O106        C115   1.269       .  A
O107       Ni111   1.893       .  S
O107       Ni129   1.909       .  S
O107       Ni123   1.914   1_565  S
O107        H130   0.966       .  S
C108        O125   1.283       .  A
C108        O117   1.277       .  A
C108       C1166   1.494       .  S
O109       Ni128   1.918       .  S
O109        C115   1.268   1_545  A
O110       Ni128   1.893       .  S
O110        C112   1.265       .  A
Ni111       O114   1.905       .  S
Ni111       O116   1.890       .  S
C112        O122   1.275       .  A
C112       C1292   1.489       .  S
O113       Ni129   1.931       .  S
O113        C119   1.278       .  A
O114        C119   1.276       .  A
C115       C1085   1.490       .  S
O116        C118   1.265       .  A
O117       Ni128   1.916       .  S
C118        O124   1.270       .  A
C118       C1068   1.467       .  S
C119       C1054   1.471       .  S
H120        O121   0.966       .  S
O121       Ni129   1.915   1_545  S
O121       Ni123   1.905       .  S
O121       Ni128   1.890       .  S
O122       Ni123   1.935       .  S
Ni123       O127   1.927   1_556  S
Ni123       O125   1.930       .  S
O124       Ni129   1.932       .  S
C126        O127   1.274       .  A
C126       C1099   1.486       .  S
O131       Ni137   1.906       .  S
O131        C152   1.266       .  A
O132       Ni155   1.930       .  S
O132        C141   1.278       .  A
O133       Ni137   1.872       .  S
O133       Ni155   1.898       .  S
O133       Ni149   1.920   1_565  S
O133        H156   0.966       .  S
C134        O151   1.285       .  A
C134        O143   1.281       .  A
C134       C1127   1.501       .  S
O135       Ni154   1.912       .  S
O135        C141   1.268   1_545  A
O136       Ni154   1.911       .  S
O136        C138   1.267       .  A
Ni137       O140   1.900       .  S
Ni137       O142   1.901       .  S
C138        O148   1.272       .  A
C138       C1239   1.496       .  S
O139       Ni155   1.963       .  S
O139        C145   1.288       .  A
O140        C145   1.276       .  A
C141       C1096   1.490       .  S
O142        C144   1.269       .  A
O143       Ni154   1.921       .  S
C144        O150   1.278       .  A
C144       C1043   1.484       .  S
C145       C1026   1.488       .  S
H146        O147   0.966       .  S
O147       Ni155   1.927   1_545  S
O147       Ni149   1.893       .  S
O147       Ni154   1.886       .  S
O148       Ni149   1.926       .  S
Ni149       O153   1.923       .  S
Ni149       O151   1.938       .  S
O150       Ni155   1.948       .  S
C152        O153   1.271   1_565  A
C152       C1082   1.489       .  S
O157       Ni163   1.913       .  S
O157        C178   1.268       .  A
O158       Ni181   1.912       .  S
O158        C167   1.271       .  A
O159       Ni163   1.905       .  S
O159       Ni181   1.899   1_556  S
O159       Ni175   1.910       .  S
O159        H182   0.965       .  S
C160        O177   1.274       .  A
C160        O169   1.278       .  A
C160       C1057   1.471       .  S
O161       Ni180   1.922       .  S
O161        C167   1.271       .  A
O162       Ni180   1.907       .  S
O162        C164   1.270   1_554  A
Ni163       O166   1.912       .  S
Ni163       O168   1.924       .  S
C164        O174   1.287       .  A
C164        C970   1.506       .  S
O165       Ni181   1.943       .  S
O165        C171   1.287   1_554  A
O166        C171   1.278       .  A
C167        C998   1.491       .  S
O168        C170   1.269       .  A
O169       Ni180   1.918   1_556  S
C170        O176   1.272   1_556  A
C170        C959   1.510       .  S
C171       C1015   1.494   1_556  S
H172        O173   0.966       .  S
O173       Ni181   1.922   1_556  S
O173       Ni175   1.904       .  S
O173       Ni180   1.884   1_556  S
O174       Ni175   1.977       .  S
Ni175       O179   1.912       .  S
Ni175       O177   1.917       .  S
O176       Ni181   1.943       .  S
C178        O179   1.272       .  A
C178        C984   1.481       .  S
O183       Ni189   1.933       .  S
O183        C204   1.276       .  A
O184       Ni207   1.922       .  S
O184        C193   1.272       .  A
O185       Ni189   1.897       .  S
O185       Ni207   1.900       .  S
O185       Ni201   1.913       .  S
O185        H208   0.966       .  S
C186        O203   1.279       .  A
C186        O195   1.277       .  A
C186       C1029   1.484       .  S
O187       Ni206   1.906       .  S
O187        C193   1.265       .  A
O188       Ni206   1.900       .  S
O188        C190   1.268       .  A
Ni189       O192   1.937       .  S
Ni189       O194   1.928       .  S
C190        O200   1.277       .  A
C190        C928   1.481       .  S
O191       Ni207   1.936       .  S
O191        C197   1.285       .  A
O192        C197   1.282       .  A
C193        C987   1.484       .  S
O194        C196   1.271       .  A
O195       Ni206   1.917       .  S
C196        O202   1.266       .  A
C196        C914   1.497       .  S
C197        C942   1.489       .  S
H198        O199   0.966       .  S
O199       Ni207   1.930       .  S
O199       Ni201   1.894       .  S
O199       Ni206   1.881       .  S
O200       Ni201   1.945       .  S
Ni201       O205   1.902       .  S
Ni201       O203   1.942       .  S
O202       Ni207   1.919       .  S
C204        O205   1.269       .  A
C204       C1001   1.484       .  S
O209       Ni215   1.925       .  S
O209        C230   1.271       .  A
O210       Ni233   1.877       .  S
O210        C219   1.262       .  A
O211       Ni215   1.899       .  S
O211       Ni233   1.897   1_554  S
O211       Ni227   1.911       .  S
O211        H234   0.966       .  S
C212        O229   1.277       .  A
C212        O221   1.281   1_554  A
C212        C900   1.496       .  S
O213       Ni232   1.948       .  S
O213        C219   1.279       .  A
O214       Ni232   1.939       .  S
O214        C216   1.275       .  A
Ni215       O218   1.916   1_554  S
Ni215       O220   1.919       .  S
C216        O226   1.277   1_556  A
C216        C858   1.520   1_565  S
O217       Ni233   1.917       .  S
O217        C223   1.274       .  A
O218        C223   1.276       .  A
C219        C872   1.488       .  S
O220        C222   1.271   1_554  A
O221       Ni232   1.940       .  S
C222        O228   1.278       .  A
C222        C973   1.506       .  S
C223       C1071   1.473       .  S
H224        O225   0.966       .  S
O225       Ni233   1.906       .  S
O225       Ni227   1.900   1_556  S
O225       Ni232   1.915       .  S
O226       Ni227   1.951       .  S
Ni227       O231   1.900       .  S
Ni227       O229   1.917       .  S
O228       Ni233   1.958       .  S
C230        O231   1.269       .  A
C230        C886   1.487       .  S
O235       Ni241   1.933       .  S
O235        C256   1.273       .  A
O236       Ni259   1.906       .  S
O236        C245   1.267       .  A
O237       Ni241   1.911       .  S
O237       Ni259   1.910       .  S
O237       Ni253   1.930       .  S
O237        H260   0.966       .  S
C238        O255   1.280       .  A
C238        O247   1.280       .  A
C238        C844   1.501       .  S
O239       Ni258   1.921       .  S
O239        C245   1.269       .  A
O240       Ni258   1.919       .  S
O240        C242   1.267       .  A
Ni241       O244   1.927       .  S
Ni241       O246   1.908       .  S
C242        O252   1.266       .  A
C242        C830   1.482   1_565  S
O243       Ni259   1.928       .  S
O243        C249   1.275       .  A
O244        C249   1.276       .  A
C245        C889   1.485       .  S
O246        C248   1.272       .  A
O247       Ni258   1.932       .  S
C248        O254   1.274       .  A
C248        C931   1.492       .  S
C249       C1040   1.479       .  S
H250        O251   0.966       .  S
O251       Ni259   1.918       .  S
O251       Ni253   1.897       .  S
O251       Ni258   1.913       .  S
O252       Ni253   1.920       .  S
Ni253       O257   1.893       .  S
Ni253       O255   1.933       .  S
O254       Ni259   1.935       .  S
C256        O257   1.262       .  A
C256        C875   1.487       .  S
O261       Ni267   1.914       .  S
O261        C282   1.267       .  A
O262       Ni285   1.925   1_556  S
O262        C271   1.273       .  A
O263       Ni267   1.899       .  S
O263       Ni285   1.897       .  S
O263       Ni279   1.919       .  S
O263        H286   0.967       .  S
C264        O281   1.280       .  A
C264        O273   1.277       .  A
C264        C774   1.483       .  S
O265       Ni284   1.917   1_556  S
O265        C271   1.267       .  A
O266       Ni284   1.903       .  S
O266        C268   1.268       .  A
Ni267       O270   1.923       .  S
Ni267       O272   1.915       .  S
C268        O278   1.279       .  A
C268        C788   1.487       .  S
O269       Ni285   1.930       .  S
O269        C275   1.284       .  A
O270        C275   1.280       .  A
C271        C802   1.493       .  S
O272        C274   1.268       .  A
O273       Ni284   1.911       .  S
C274        O280   1.270       .  A
C274        C903   1.496   1_655  S
C275       C1278   1.484       .  S
H276        O277   0.966       .  S
O277       Ni285   1.924       .  S
O277       Ni279   1.910       .  S
O277       Ni284   1.886       .  S
O278       Ni279   1.952       .  S
Ni279       O283   1.921       .  S
Ni279       O281   1.942       .  S
O280       Ni285   1.929       .  S
C282        O283   1.274       .  A
C282        C819   1.489       .  S
O287       Ni293   1.925       .  S
O287        C308   1.271       .  A
O288       Ni311   1.925       .  S
O288        C297   1.274       .  A
O289       Ni293   1.905       .  S
O289       Ni311   1.907       .  S
O289       Ni305   1.921       .  S
O289        H312   0.967       .  S
C290        O307   1.282       .  A
C290        O299   1.277       .  A
C290        C746   1.474       .  S
O291       Ni310   1.908       .  S
O291        C297   1.264       .  A
O292       Ni310   1.904       .  S
O292        C294   1.269       .  A
Ni293       O296   1.922       .  S
Ni293       O298   1.922       .  S
C294        O304   1.280       .  A
C294        C760   1.492       .  S
O295       Ni311   1.936       .  S
O295        C301   1.284       .  A
O296        C301   1.278       .  A
C297        C816   1.490       .  S
O298        C300   1.271       .  A
O299       Ni310   1.910       .  S
C300        O306   1.269       .  A
C300        C847   1.506   1_655  S
C301       C1222   1.484       .  S
H302        O303   0.966       .  S
O303       Ni311   1.923       .  S
O303       Ni305   1.896       .  S
O303       Ni310   1.882       .  S
O304       Ni305   1.960       .  S
Ni305       O309   1.912       .  S
Ni305       O307   1.941       .  S
O306       Ni311   1.928       .  S
C308        O309   1.273       .  A
C308        C805   1.489       .  S
O313       Ni319   1.925       .  S
O313        C334   1.274       .  A
O314       Ni337   1.902   1_556  S
O314        C323   1.266       .  A
O315       Ni319   1.903       .  S
O315       Ni337   1.892       .  S
O315       Ni331   1.923       .  S
O315        H338   0.966       .  S
C316        O333   1.281       .  A
C316        O325   1.278       .  A
C316        C791   1.492       .  S
O317       Ni336   1.929       .  S
O317        C323   1.273       .  A
O318       Ni336   1.918   1_554  S
O318        C320   1.271       .  A
Ni319       O322   1.925       .  S
Ni319       O324   1.928       .  S
C320        O330   1.272       .  A
C320        C707   1.499       .  S
O321       Ni337   1.926       .  S
O321        C327   1.280       .  A
O322        C327   1.278       .  A
C323        C721   1.487       .  S
O324        C326   1.273       .  A
O325       Ni336   1.928   1_554  S
C326        O332   1.276       .  A
C326        C956   1.512       .  S
C327       C1208   1.488       .  S
H328        O329   0.967       .  S
O329       Ni337   1.919       .  S
O329       Ni331   1.905       .  S
O329       Ni336   1.907   1_554  S
O330       Ni331   1.940       .  S
Ni331       O335   1.891       .  S
Ni331       O333   1.937       .  S
O332       Ni337   1.941       .  S
C334        O335   1.266       .  A
C334        C735   1.480       .  S
O339       Ni345   1.934       .  S
O339        C360   1.275       .  A
O340       Ni363   1.897       .  S
O340        C349   1.264       .  A
O341       Ni345   1.906       .  S
O341       Ni363   1.898       .  S
O341       Ni357   1.929       .  S
O341        H364   0.966       .  S
C342        O359   1.283       .  A
C342        O351   1.276       .  A
C342        C763   1.498       .  S
O343       Ni362   1.924       .  S
O343        C349   1.269       .  A
O344       Ni362   1.906       .  S
O344        C346   1.268       .  A
Ni345       O348   1.931       .  S
Ni345       O350   1.919       .  S
C346        O356   1.269       .  A
C346        C690   1.483       .  S
O347       Ni363   1.935       .  S
O347        C353   1.280       .  A
O348        C353   1.278       .  A
C349        C732   1.481       .  S
O350        C352   1.273       .  A
O351       Ni362   1.920       .  S
C352        O358   1.272       .  A
C352        C917   1.499       .  S
C353       C1141   1.500       .  S
H354        O355   0.967       .  S
O355       Ni363   1.920       .  S
O355       Ni357   1.908       .  S
O355       Ni362   1.908       .  S
O356       Ni357   1.927       .  S
Ni357       O361   1.895       .  S
Ni357       O359   1.949       .  S
O358       Ni363   1.925       .  S
C360        O361   1.267       .  A
C360        C718   1.489       .  S
O365       Ni371   1.926       .  S
O365        C386   1.268       .  A
O366       Ni389   1.909       .  S
O366        C375   1.271       .  A
O367       Ni371   1.917   1_554  S
O367       Ni389   1.917       .  S
O367       Ni383   1.916       .  S
O367        H390   0.966       .  S
C368        O385   1.277       .  A
C368        O377   1.280       .  A
C368       C1351   1.492   1_455  S
O369       Ni388   1.933       .  S
O369        C375   1.275       .  A
O370       Ni388   1.922       .  S
O370        C372   1.272       .  A
Ni371       O374   1.914   1_556  S
Ni371       O376   1.914       .  S
C372        O382   1.278       .  A
C372        C861   1.520       .  S
O373       Ni389   1.927       .  S
O373        C379   1.276       .  A
O374        C379   1.275       .  A
C375        C679   1.489       .  S
O376        C378   1.270   1_556  A
O377       Ni388   1.929       .  S
C378        O384   1.276       .  A
C378        C637   1.507       .  S
C379        C651   1.481       .  S
H380        O381   0.966       .  S
O381       Ni389   1.911       .  S
O381       Ni383   1.893       .  S
O381       Ni388   1.901       .  S
O382       Ni383   1.954       .  S
Ni383       O387   1.904   1_554  S
Ni383       O385   1.913       .  S
O384       Ni389   1.943       .  S
C386        O387   1.269       .  A
C386        C662   1.488       .  S
O391       Ni397   1.919       .  S
O391        C412   1.269       .  A
O392       Ni415   1.904       .  S
O392        C401   1.267       .  A
O393       Ni397   1.925       .  S
O393       Ni415   1.917       .  S
O393       Ni409   1.928       .  S
O393        H416   0.965       .  S
C394        O411   1.277       .  A
C394        O403   1.280       .  A
C394        C609   1.492       .  S
O395       Ni414   1.936       .  S
O395        C401   1.275       .  A
O396       Ni414   1.911       .  S
O396        C398   1.270       .  A
Ni397       O400   1.935       .  S
Ni397       O402   1.910       .  S
C398        O408   1.283       .  A
C398        C620   1.505       .  S
O399       Ni415   1.916       .  S
O399        C405   1.272       .  A
O400        C405   1.275       .  A
C401        C676   1.495       .  S
O402        C404   1.268       .  A
O403       Ni414   1.923       .  S
C404        O410   1.276       .  A
C404       C1267   1.505   1_455  S
C405        C833   1.501       .  S
H406        O407   0.966       .  S
O407       Ni415   1.900       .  S
O407       Ni409   1.897       .  S
O407       Ni414   1.897       .  S
O408       Ni409   1.967       .  S
Ni409       O413   1.915       .  S
Ni409       O411   1.916       .  S
O410       Ni415   1.952       .  S
C412        O413   1.272       .  A
C412        C665   1.487       .  S
O417       Ni423   1.908       .  S
O417        C438   1.264       .  A
O418       Ni441   1.908       .  S
O418        C427   1.270       .  A
O419       Ni423   1.889   1_554  S
O419       Ni441   1.897       .  S
O419       Ni435   1.907       .  S
O419        H442   0.966       .  S
C420        O437   1.278   1_554  A
C420        O429   1.277       .  A
C420       C1152   1.476       .  S
O421       Ni440   1.922       .  S
O421        C427   1.269       .  A
O422       Ni440   1.901       .  S
O422        C424   1.267       .  A
Ni423       O426   1.908   1_556  S
Ni423       O428   1.892   1_556  S
C424        O434   1.276       .  A
C424       C1012   1.492       .  S
O425       Ni441   1.930       .  S
O425        C431   1.282       .  A
O426        C431   1.278       .  A
C427        C592   1.477       .  S
O428        C430   1.265       .  A
O429       Ni440   1.921       .  S
C430        O436   1.271       .  A
C430        C648   1.475       .  S
C431        C564   1.487       .  S
H432        O433   0.966       .  S
O433       Ni441   1.915       .  S
O433       Ni435   1.905       .  S
O433       Ni440   1.900       .  S
O434       Ni435   1.936       .  S
Ni435       O439   1.930   1_554  S
Ni435       O437   1.918   1_554  S
O436       Ni441   1.937       .  S
C438        O439   1.274       .  A
C438        C578   1.490       .  S
O443       Ni449   1.921       .  S
O443        C464   1.270       .  A
O444       Ni467   1.927       .  S
O444        C453   1.276       .  A
O445       Ni449   1.886       .  S
O445       Ni467   1.897       .  S
O445       Ni461   1.908       .  S
O445        H468   0.967       .  S
C446        O463   1.279       .  A
C446        O455   1.278       .  A
C446       C1113   1.489       .  S
O447       Ni466   1.913       .  S
O447        C453   1.269       .  A
O448       Ni466   1.918       .  S
O448        C450   1.269       .  A
Ni449       O452   1.915       .  S
Ni449       O454   1.907       .  S
C450        O460   1.274       .  A
C450        C945   1.512       .  S
O451       Ni467   1.932       .  S
O451        C457   1.285       .  A
O452        C457   1.278       .  A
C453        C581   1.490       .  S
O454        C456   1.269       .  A
O455       Ni466   1.920       .  S
C456        O462   1.283       .  A
C456        C623   1.504       .  S
C457        C550   1.480       .  S
H458        O459   0.966       .  S
O459       Ni467   1.926       .  S
O459       Ni461   1.897       .  S
O459       Ni466   1.900       .  S
O460       Ni461   1.942       .  S
Ni461       O465   1.903       .  S
Ni461       O463   1.931       .  S
O462       Ni467   1.969       .  S
C464        O465   1.268       .  A
C464        C595   1.476       .  S
O469       Ni475   1.907   1_556  S
O469        C490   1.265       .  A
O470       Ni493   1.904       .  S
O470        C479   1.270       .  A
O471       Ni475   1.878       .  S
O471       Ni493   1.888       .  S
O471       Ni487   1.917       .  S
O471        H494   0.966   1_655  S
C472        O489   1.281   1_455  A
C472        O481   1.278       .  A
C472        C634   1.503       .  S
O473       Ni492   1.925       .  S
O473        C479   1.273   1_455  A
O474       Ni492   1.908       .  S
O474        C476   1.268       .  A
Ni475       O478   1.906       .  S
Ni475       O480   1.893       .  S
C476        O486   1.271       .  A
C476        C567   1.490       .  S
O477       Ni493   1.950       .  S
O477        C483   1.283       .  A
O478        C483   1.277       .  A
C479        C539   1.486       .  S
O480        C482   1.265       .  A
O481       Ni492   1.932       .  S
C482        O488   1.280       .  A
C482        C704   1.485       .  S
C483        C777   1.482       .  S
H484        O485   0.966       .  S
O485       Ni493   1.927       .  S
O485       Ni487   1.910       .  S
O485       Ni492   1.906   1_655  S
O486       Ni487   1.929   1_455  S
Ni487       O491   1.917   1_554  S
Ni487       O489   1.934       .  S
O488       Ni493   1.958       .  S
C490        O491   1.272       .  A
C490        C522   1.476       .  S
O495       Ni501   1.923       .  S
O495        C516   1.269       .  A
O496       Ni519   1.921       .  S
O496        C505   1.271       .  A
O497       Ni501   1.887       .  S
O497       Ni519   1.906       .  S
O497       Ni513   1.912       .  S
O497        H520   0.966   1_655  S
C498        O515   1.280       .  A
C498        O507   1.278       .  A
C498        C606   1.490   1_655  S
O499       Ni518   1.902       .  S
O499        C505   1.263   1_455  A
O500       Ni518   1.894       .  S
O500        C502   1.262       .  A
Ni501       O504   1.914       .  S
Ni501       O506   1.895       .  S
C502        O512   1.271       .  A
C502        C553   1.490       .  S
O503       Ni519   1.927       .  S
O503        C509   1.277       .  A
O504        C509   1.276       .  A
C505        C525   1.477       .  S
O506        C508   1.268       .  A
O507       Ni518   1.912   1_655  S
C508        O514   1.276       .  A
C508        C693   1.477       .  S
C509        C749   1.473       .  S
H510        O511   0.967       .  S
O511       Ni519   1.913       .  S
O511       Ni513   1.893       .  S
O511       Ni518   1.891   1_655  S
O512       Ni513   1.931   1_455  S
Ni513       O517   1.906       .  S
Ni513       O515   1.922       .  S
O514       Ni519   1.942       .  S
C516        O517   1.268       .  A
C516        C536   1.481       .  S
C521        C522   1.410       .  A
C521        C526   1.403       .  A
C521        H528   1.084       .  S
C522        C523   1.405   1_655  A
C523        C524   1.395       .  A
C523        N530   1.432       .  S
C524        C525   1.409   1_455  A
C524        H529   1.084       .  S
C525        C526   1.406       .  A
C526        N527   1.432       .  S
N527        H531   1.045       .  S
N527        H532   1.046       .  S
N530        H533   1.046       .  S
N530        H534   1.046       .  S
C535        C536   1.408       .  A
C535        C540   1.400       .  A
C535        H542   1.084       .  S
C536        C537   1.414   1_655  A
C537        C538   1.394       .  A
C537        N544   1.433       .  S
C538        C539   1.409   1_455  A
C538        H543   1.084       .  S
C539        C540   1.416       .  A
C540        N541   1.433       .  S
N541        H545   1.045       .  S
N541        H546   1.045       .  S
N544        H547   1.044       .  S
N544        H548   1.046       .  S
C549        C550   1.399       .  A
C549        C554   1.403       .  A
C549        H556   1.084       .  S
C550        C551   1.413       .  A
C551        C552   1.402       .  A
C551        N558   1.433       .  S
C552        C553   1.405       .  A
C552        H557   1.084       .  S
C553        C554   1.419       .  A
C554        N555   1.433       .  S
N555        H559   1.046       .  S
N555        H560   1.046       .  S
N558        H561   1.046       .  S
N558        H562   1.046       .  S
C563        C564   1.407       .  A
C563        C568   1.402       .  A
C563        H570   1.083   1_554  S
C564        C565   1.409       .  A
C565        C566   1.404       .  A
C565        N572   1.432       .  S
C566        C567   1.409       .  A
C566        H571   1.083       .  S
C567        C568   1.416       .  A
C568        N569   1.438       .  S
N569        H573   1.046   1_554  S
N569        H574   1.045       .  S
N572        H575   1.046       .  S
N572        H576   1.045       .  S
C577        C578   1.413       .  A
C577        C582   1.404       .  A
C577        H584   1.083       .  S
C578        C579   1.407       .  A
C579        C580   1.403       .  A
C579        N586   1.432       .  S
C580        C581   1.412       .  A
C580        H585   1.083       .  S
C581        C582   1.408       .  A
C582        N583   1.433       .  S
N583        H587   1.046       .  S
N583        H588   1.046       .  S
N586        H589   1.046       .  S
N586        H590   1.046       .  S
C591        C592   1.402       .  A
C591        C596   1.403       .  A
C591        H598   1.084       .  S
C592        C593   1.412       .  A
C593        C594   1.401       .  A
C593        N600   1.433       .  S
C594        C595   1.403       .  A
C594        H599   1.084       .  S
C595        C596   1.414       .  A
C596        N597   1.438       .  S
N597        H601   1.046       .  S
N597        H602   1.046       .  S
N600        H603   1.046       .  S
N600        H604   1.046       .  S
C605        C606   1.409       .  A
C605        C610   1.396       .  A
C605        H612   1.084       .  S
C606        C607   1.417       .  A
C607        C608   1.397       .  A
C607        N614   1.432       .  S
C608        C609   1.409       .  A
C608        H613   1.083       .  S
C609        C610   1.419       .  A
C610        N611   1.433       .  S
N611        H615   1.045       .  S
N611        H616   1.045       .  S
N614        H617   1.045   1_455  S
N614        H618   1.044       .  S
C619        C620   1.410       .  A
C619        C624   1.416       .  A
C619        H626   1.084       .  S
C620        C621   1.415       .  A
C621        C622   1.415       .  A
C621        N628   1.437       .  S
C622        C623   1.408       .  A
C622        H627   1.084       .  S
C623        C624   1.419       .  A
C624        N625   1.432       .  S
N625        H629   1.045       .  S
N625        H630   1.045       .  S
N628        H631   1.046       .  S
N628        H632   1.046       .  S
C633        C634   1.409       .  A
C633        C638   1.406       .  A
C633        H640   1.084       .  S
C634        C635   1.415       .  A
C635        C636   1.416       .  A
C635        N642   1.438   1_554  S
C636        C637   1.414       .  A
C636        H641   1.083   1_554  S
C637        C638   1.413       .  A
C638        N639   1.433       .  S
N639        H643   1.046       .  S
N639        H644   1.046       .  S
N642        H645   1.046   1_455  S
N642        H646   1.046       .  S
C647        C648   1.403       .  A
C647        C652   1.409       .  A
C647        H654   1.084       .  S
C648        C649   1.408       .  A
C649        C650   1.398       .  A
C649        N656   1.433   1_554  S
C650        C651   1.403       .  A
C650        H655   1.084   1_554  S
C651        C652   1.412       .  A
C652        N653   1.430       .  S
N653        H657   1.045       .  S
N653        H658   1.046       .  S
N656        H659   1.046       .  S
N656        H660   1.045       .  S
C661        C662   1.401       .  A
C661        C666   1.398       .  A
C661        H668   1.084       .  S
C662        C663   1.417       .  A
C663        C664   1.407       .  A
C663        N670   1.432       .  S
C664        C665   1.403       .  A
C664        H669   1.083       .  S
C665        C666   1.417       .  A
C666        N667   1.433       .  S
N667        H671   1.046       .  S
N667        H672   1.046       .  S
N670        H673   1.046       .  S
N670        H674   1.046       .  S
C675        C676   1.407       .  A
C675        C680   1.407       .  A
C675        H682   1.083       .  S
C676        C677   1.419       .  A
C677        C678   1.407       .  A
C677        N684   1.438       .  S
C678        C679   1.404       .  A
C678        H683   1.083       .  S
C679        C680   1.413       .  A
C680        N681   1.436       .  S
N681        H685   1.046       .  S
N681        H686   1.046       .  S
N684        H687   1.045       .  S
N684        H688   1.046       .  S
C689        C690   1.408       .  A
C689        C694   1.405       .  A
C689        H696   1.084       .  S
C690        C691   1.408       .  A
C691        C692   1.399       .  A
C691        N698   1.433       .  S
C692        C693   1.403       .  A
C692        H697   1.084       .  S
C693        C694   1.413       .  A
C694        N695   1.432       .  S
N695        H699   1.045       .  S
N695        H700   1.045       .  S
N698        H701   1.046       .  S
N698        H702   1.046       .  S
C703        C704   1.405       .  A
C703        C708   1.404       .  A
C703        H710   1.084       .  S
C704        C705   1.411       .  A
C705        C706   1.418       .  A
C705        N712   1.437       .  S
C706        C707   1.413       .  A
C706        H711   1.083       .  S
C707        C708   1.411       .  A
C708        N709   1.432   1_554  S
N709        H713   1.046       .  S
N709        H714   1.046       .  S
N712        H715   1.046       .  S
N712        H716   1.046       .  S
C717        C718   1.407       .  A
C717        C722   1.405       .  A
C717        H724   1.083       .  S
C718        C719   1.415       .  A
C719        C720   1.399       .  A
C719        N726   1.433       .  S
C720        C721   1.404       .  A
C720        H725   1.084       .  S
C721        C722   1.414       .  A
C722        N723   1.432       .  S
N723        H727   1.045       .  S
N723        H728   1.046       .  S
N726        H729   1.046       .  S
N726        H730   1.046       .  S
C731        C732   1.405       .  A
C731        C736   1.396       .  A
C731        H738   1.084       .  S
C732        C733   1.414       .  A
C733        C734   1.404       .  A
C733        N740   1.438       .  S
C734        C735   1.405       .  A
C734        H739   1.083       .  S
C735        C736   1.412       .  A
C736        N737   1.434       .  S
N737        H741   1.046       .  S
N737        H742   1.046       .  S
N740        H743   1.045       .  S
N740        H744   1.046       .  S
C745        C746   1.403       .  A
C745        C750   1.397       .  A
C745        H752   1.084   1_655  S
C746        C747   1.406       .  A
C747        C748   1.405       .  A
C747        N754   1.430       .  S
C748        C749   1.403       .  A
C748        H753   1.083       .  S
C749        C750   1.413       .  A
C750        N751   1.434   1_655  S
N751        H755   1.043       .  S
N751        H756   1.046       .  S
N754        H757   1.045       .  S
N754        H758   1.045       .  S
C759        C760   1.403       .  A
C759        C764   1.407       .  A
C759        H766   1.084       .  S
C760        C761   1.411       .  A
C761        C762   1.418       .  A
C761        N768   1.430       .  S
C762        C763   1.408       .  A
C762        H767   1.084       .  S
C763        C764   1.416       .  A
C764        N765   1.438       .  S
N765        H769   1.046       .  S
N765        H770   1.045       .  S
N768        H771   1.045       .  S
N768        H772   1.044       .  S
C773        C774   1.401       .  A
C773        C778   1.400   1_655  A
C773        H780   1.084   1_655  S
C774        C775   1.413       .  A
C775        C776   1.414       .  A
C775        N782   1.435       .  S
C776        C777   1.406       .  A
C776        H781   1.084       .  S
C777        C778   1.411   1_655  A
C778        N779   1.438       .  S
N779        H783   1.045       .  S
N779        H784   1.046       .  S
N782        H785   1.045       .  S
N782        H786   1.046       .  S
C787        C788   1.402       .  A
C787        C792   1.403       .  A
C787        H794   1.085       .  S
C788        C789   1.414       .  A
C789        C790   1.410       .  A
C789        N796   1.430       .  S
C790        C791   1.407       .  A
C790        H795   1.084       .  S
C791        C792   1.420       .  A
C792        N793   1.439   1_554  S
N793        H797   1.046       .  S
N793        H798   1.044       .  S
N796        H799   1.045       .  S
N796        H800   1.043       .  S
C801        C802   1.404       .  A
C801        C806   1.405       .  A
C801        H808   1.084       .  S
C802        C803   1.419       .  A
C803        C804   1.403       .  A
C803        N810   1.433       .  S
C804        C805   1.401       .  A
C804        H809   1.084       .  S
C805        C806   1.417       .  A
C806        N807   1.433       .  S
N807        H811   1.045       .  S
N807        H812   1.046       .  S
N810        H813   1.046       .  S
N810        H814   1.046       .  S
C815        C816   1.401       .  A
C815        C820   1.397       .  A
C815        H822   1.084       .  S
C816        C817   1.425       .  A
C817        C818   1.401       .  A
C817        N824   1.433       .  S
C818        C819   1.402       .  A
C818        H823   1.084       .  S
C819        C820   1.423       .  A
C820        N821   1.433       .  S
N821        H825   1.045       .  S
N821        H826   1.045       .  S
N824        H827   1.045       .  S
N824        H828   1.045       .  S
C829        C830   1.402       .  A
C829        C834   1.413       .  A
C829        H836   1.084       .  S
C830        C831   1.409       .  A
C831        C832   1.406       .  A
C831        N838   1.439   1_545  S
C832        C833   1.411       .  A
C832        H837   1.083       .  S
C833        C834   1.420       .  A
C834        N835   1.437       .  S
N835        H839   1.046       .  S
N835        H840   1.046       .  S
N838        H841   1.046       .  S
N838        H842   1.046       .  S
C843        C844   1.407       .  A
C843        C848   1.402       .  A
C843        H850   1.084       .  S
C844        C845   1.418       .  A
C845        C846   1.407       .  A
C845        N852   1.431       .  S
C846        C847   1.411       .  A
C846        H851   1.083       .  S
C847        C848   1.424       .  A
C848        N849   1.433   1_455  S
N849        H853   1.045       .  S
N849        H854   1.045       .  S
N852        H855   1.045       .  S
N852        H856   1.045       .  S
C857        C858   1.409   1_554  A
C857        C862   1.411       .  A
C857        H864   1.084       .  S
C858        C859   1.421       .  A
C859        C860   1.424       .  A
C859        N866   1.437       .  S
C860        C861   1.413   1_556  A
C860        H865   1.083       .  S
C861        C862   1.419       .  A
C862        N863   1.433       .  S
N863        H867   1.046       .  S
N863        H868   1.046       .  S
N866        H869   1.046       .  S
N866        H870   1.046       .  S
C871        C872   1.403       .  A
C871        C876   1.403       .  A
C871        H878   1.084       .  S
C872        C873   1.418       .  A
C873        C874   1.400       .  A
C873        N880   1.434       .  S
C874        C875   1.403       .  A
C874        H879   1.084       .  S
C875        C876   1.417       .  A
C876        N877   1.432       .  S
N877        H881   1.046       .  S
N877        H882   1.045       .  S
N880        H883   1.046       .  S
N880        H884   1.046       .  S
C885        C886   1.403       .  A
C885        C890   1.395       .  A
C885        H892   1.084       .  S
C886        C887   1.418       .  A
C887        C888   1.409       .  A
C887        N894   1.438       .  S
C888        C889   1.407       .  A
C888        H893   1.084       .  S
C889        C890   1.413       .  A
C890        N891   1.433       .  S
N891        H895   1.046       .  S
N891        H896   1.046       .  S
N894        H897   1.046       .  S
N894        H898   1.046       .  S
C899        C900   1.407   1_556  A
C899        C904   1.398   1_556  A
C899        H906   1.084       .  S
C900        C901   1.413       .  A
C901        C902   1.411       .  A
C901        N908   1.432       .  S
C902        C903   1.409       .  A
C902        H907   1.084       .  S
C903        C904   1.420       .  A
C904        N905   1.433   1_454  S
N905        H909   1.046       .  S
N905        H910   1.045       .  S
N908        H911   1.046       .  S
N908        H912   1.045       .  S
C913        C914   1.405       .  A
C913        C918   1.409       .  A
C913        H920   1.084       .  S
C914        C915   1.417       .  A
C915        C916   1.404       .  A
C915        N922   1.433       .  S
C916        C917   1.405       .  A
C916        H921   1.084       .  S
C917        C918   1.418       .  A
C918        N919   1.432       .  S
N919        H923   1.045       .  S
N919        H924   1.046       .  S
N922        H925   1.045       .  S
N922        H926   1.046       .  S
C927        C928   1.402       .  A
C927        C932   1.406       .  A
C927        H934   1.084       .  S
C928        C929   1.418       .  A
C929        C930   1.400       .  A
C929        N936   1.439       .  S
C930        C931   1.404       .  A
C930        H935   1.084       .  S
C931        C932   1.423       .  A
C932        N933   1.433       .  S
N933        H937   1.045       .  S
N933        H938   1.045       .  S
N936        H939   1.043       .  S
N936        H940   1.046       .  S
C941        C942   1.403       .  A
C941        C946   1.404       .  A
C941        H948   1.084       .  S
C942        C943   1.410       .  A
C943        C944   1.410       .  A
C943        N950   1.433       .  S
C944        C945   1.417       .  A
C944        H949   1.083       .  S
C945        C946   1.423       .  A
C946        N947   1.432       .  S
N947        H951   1.045       .  S
N947        H952   1.045       .  S
N950        H953   1.045       .  S
N950        H954   1.046       .  S
C955        C956   1.411   1_556  A
C955        C960   1.417       .  A
C955        H962   1.083       .  S
C956        C957   1.417       .  A
C957        C958   1.412       .  A
C957        N964   1.432       .  S
C958        C959   1.408   1_554  A
C958        H963   1.084       .  S
C959        C960   1.419       .  A
C960        N961   1.438       .  S
N961        H965   1.046       .  S
N961        H966   1.046       .  S
N964        H967   1.046       .  S
N964        H968   1.046       .  S
C969        C970   1.408   1_554  A
C969        C974   1.412       .  A
C969        H976   1.084       .  S
C970        C971   1.417       .  A
C971        C972   1.426       .  A
C971        N978   1.437       .  S
C972        C973   1.412       .  A
C972        H977   1.084       .  S
C973        C974   1.412   1_556  A
C974        N975   1.438       .  S
N975        H979   1.046       .  S
N975        H980   1.046       .  S
N978        H981   1.046       .  S
N978        H982   1.046       .  S
C983        C984   1.409       .  A
C983        C988   1.402       .  A
C983        H990   1.084       .  S
C984        C985   1.405       .  A
C985        C986   1.400       .  A
C985        N992   1.432       .  S
C986        C987   1.411       .  A
C986        H991   1.083       .  S
C987        C988   1.409       .  A
C988        N989   1.433       .  S
N989        H993   1.045       .  S
N989        H994   1.045       .  S
N992        H995   1.046       .  S
N992        H996   1.046       .  S
C997        C998   1.411       .  A
C997       C1002   1.402       .  A
C997       H1004   1.084       .  S
C998        C999   1.417       .  A
C999       C1000   1.394       .  A
C999       N1006   1.430       .  S
C1000      C1001   1.404       .  A
C1000      H1005   1.084       .  S
C1001      C1002   1.415       .  A
C1002      N1003   1.433       .  S
N1003      H1007   1.046       .  S
N1003      H1008   1.045       .  S
N1006      H1009   1.045       .  S
N1006      H1010   1.043       .  S
C1011      C1012   1.412       .  A
C1011      C1016   1.411       .  A
C1011      H1018   1.083       .  S
C1012      C1013   1.411   1_554  A
C1013      C1014   1.402       .  A
C1013      N1020   1.439       .  S
C1014      C1015   1.410   1_556  A
C1014      H1019   1.083       .  S
C1015      C1016   1.410       .  A
C1016      N1017   1.434       .  S
N1017      H1021   1.046       .  S
N1017      H1022   1.045       .  S
N1020      H1023   1.046       .  S
N1020      H1024   1.046       .  S
C1025      C1026   1.406       .  A
C1025      C1030   1.400       .  A
C1025      H1032   1.084       .  S
C1026      C1027   1.419       .  A
C1027      C1028   1.409       .  A
C1027      N1034   1.432       .  S
C1028      C1029   1.407       .  A
C1028      H1033   1.084       .  S
C1029      C1030   1.407       .  A
C1030      N1031   1.433       .  S
N1031      H1035   1.046       .  S
N1031      H1036   1.045       .  S
N1034      H1037   1.045       .  S
N1034      H1038   1.044       .  S
C1039      C1040   1.407       .  A
C1039      C1044   1.419       .  A
C1039      H1046   1.083       .  S
C1040      C1041   1.405       .  A
C1041      C1042   1.396       .  A
C1041      N1048   1.433       .  S
C1042      C1043   1.404       .  A
C1042      H1047   1.085       .  S
C1043      C1044   1.413       .  A
C1044      N1045   1.436   1_565  S
N1045      H1049   1.046       .  S
N1045      H1050   1.045       .  S
N1048      H1051   1.045       .  S
N1048      H1052   1.046       .  S
C1053      C1054   1.402       .  A
C1053      C1058   1.399       .  A
C1053      H1060   1.084       .  S
C1054      C1055   1.412       .  A
C1055      C1056   1.401       .  A
C1055      N1062   1.430       .  S
C1056      C1057   1.404       .  A
C1056      H1061   1.084       .  S
C1057      C1058   1.409       .  A
C1058      N1059   1.438       .  S
N1059      H1063   1.046       .  S
N1059      H1064   1.046       .  S
N1062      H1065   1.045       .  S
N1062      H1066   1.043       .  S
C1067      C1068   1.401       .  A
C1067      C1072   1.393       .  A
C1067      H1074   1.085   1_565  S
C1068      C1069   1.407       .  A
C1069      C1070   1.407       .  A
C1069      N1076   1.435       .  S
C1070      C1071   1.406       .  A
C1070      H1075   1.084       .  S
C1071      C1072   1.414       .  A
C1072      N1073   1.434   1_565  S
N1073      H1077   1.043   1_546  S
N1073      H1078   1.046       .  S
N1076      H1079   1.045       .  S
N1076      H1080   1.046       .  S
C1081      C1082   1.411       .  A
C1081      C1086   1.397       .  A
C1081      H1088   1.084       .  S
C1082      C1083   1.415   1_565  A
C1083      C1084   1.398       .  A
C1083      N1090   1.433       .  S
C1084      C1085   1.411   1_545  A
C1084      H1089   1.084       .  S
C1085      C1086   1.415       .  A
C1086      N1087   1.432       .  S
N1087      H1091   1.045       .  S
N1087      H1092   1.045       .  S
N1090      H1093   1.045       .  S
N1090      H1094   1.045       .  S
C1095      C1096   1.403       .  A
C1095      C1100   1.407       .  A
C1095      H1102   1.084       .  S
C1096      C1097   1.419   1_565  A
C1097      C1098   1.401       .  A
C1097      N1104   1.433       .  S
C1098      C1099   1.399       .  A
C1098      H1103   1.084       .  S
C1099      C1100   1.418   1_545  A
C1100      N1101   1.433       .  S
N1101      H1105   1.046   1_565  S
N1101      H1106   1.046       .  S
N1104      H1107   1.046       .  S
N1104      H1108   1.046   1_545  S
C1109      C1110   1.406       .  A
C1109      C1114   1.399       .  A
C1109      H1116   1.083       .  S
C1110      C1111   1.416       .  A
C1111      C1112   1.411       .  A
C1111      N1118   1.432       .  S
C1112      C1113   1.408       .  A
C1112      H1117   1.084       .  S
C1113      C1114   1.410       .  A
C1114      N1115   1.433       .  S
N1115      H1119   1.046       .  S
N1115      H1120   1.046       .  S
N1118      H1121   1.046       .  S
N1118      H1122   1.046       .  S
C1123      C1124   1.411       .  A
C1123      C1128   1.407       .  A
C1123      H1130   1.084       .  S
C1124      C1125   1.416       .  A
C1125      C1126   1.397       .  A
C1125      N1132   1.432       .  S
C1126      C1127   1.411       .  A
C1126      H1131   1.083       .  S
C1127      C1128   1.419       .  A
C1128      N1129   1.432       .  S
N1129      H1133   1.044       .  S
N1129      H1134   1.046       .  S
N1132      H1135   1.045       .  S
N1132      H1136   1.045       .  S
C1137      C1138   1.407       .  A
C1137      C1142   1.408       .  A
C1137      H1144   1.083       .  S
C1138      C1139   1.421       .  A
C1139      C1140   1.411       .  A
C1139      N1146   1.433       .  S
C1140      C1141   1.406       .  A
C1140      H1145   1.083       .  S
C1141      C1142   1.415       .  A
C1142      N1143   1.432       .  S
N1143      H1147   1.046       .  S
N1143      H1148   1.046       .  S
N1146      H1149   1.046       .  S
N1146      H1150   1.046       .  S
C1151      C1152   1.403   1_556  A
C1151      C1156   1.400       .  A
C1151      H1158   1.084       .  S
C1152      C1153   1.414       .  A
C1153      C1154   1.397       .  A
C1153      N1160   1.433       .  S
C1154      C1155   1.405   1_554  A
C1154      H1159   1.084       .  S
C1155      C1156   1.416       .  A
C1156      N1157   1.432       .  S
N1157      H1161   1.045       .  S
N1157      H1162   1.046       .  S
N1160      H1163   1.046       .  S
N1160      H1164   1.045       .  S
C1165      C1166   1.405       .  A
C1165      C1170   1.405       .  A
C1165      H1172   1.084       .  S
C1166      C1167   1.419       .  A
C1167      C1168   1.402       .  A
C1167      N1174   1.433       .  S
C1168      C1169   1.402       .  A
C1168      H1173   1.084       .  S
C1169      C1170   1.417       .  A
C1170      N1171   1.433   1_556  S
N1171      H1175   1.046       .  S
N1171      H1176   1.046       .  S
N1174      H1177   1.046       .  S
N1174      H1178   1.046       .  S
C1179      C1180   1.408       .  A
C1179      C1184   1.400       .  A
C1179      H1186   1.084       .  S
C1180      C1181   1.418       .  A
C1181      C1182   1.394       .  A
C1181      N1188   1.433       .  S
C1182      C1183   1.406       .  A
C1182      H1187   1.084       .  S
C1183      C1184   1.416       .  A
C1184      N1185   1.433       .  S
N1185      H1189   1.045       .  S
N1185      H1190   1.045       .  S
N1188      H1191   1.045       .  S
N1188      H1192   1.045       .  S
C1193      C1194   1.401       .  A
C1193      C1198   1.392       .  A
C1193      H1200   1.084       .  S
C1194      C1195   1.419       .  A
C1195      C1196   1.391       .  A
C1195      N1202   1.434       .  S
C1196      C1197   1.403       .  A
C1196      H1201   1.084       .  S
C1197      C1198   1.419       .  A
C1198      N1199   1.433       .  S
N1199      H1203   1.044       .  S
N1199      H1204   1.045       .  S
N1202      H1205   1.045       .  S
N1202      H1206   1.045       .  S
C1207      C1208   1.407       .  A
C1207      C1212   1.407       .  A
C1207      H1214   1.084       .  S
C1208      C1209   1.410   1_554  A
C1209      C1210   1.402       .  A
C1209      N1216   1.432       .  S
C1210      C1211   1.406       .  A
C1210      H1215   1.083       .  S
C1211      C1212   1.415   1_556  A
C1212      N1213   1.433       .  S
N1213      H1217   1.046       .  S
N1213      H1218   1.045       .  S
N1216      H1219   1.046       .  S
N1216      H1220   1.045       .  S
C1221      C1222   1.402       .  A
C1221      C1226   1.411       .  A
C1221      H1228   1.084       .  S
C1222      C1223   1.410       .  A
C1223      C1224   1.402       .  A
C1223      N1230   1.433       .  S
C1224      C1225   1.407   1_565  A
C1224      H1229   1.084   1_565  S
C1225      C1226   1.418   1_545  A
C1226      N1227   1.432       .  S
N1227      H1231   1.045       .  S
N1227      H1232   1.046       .  S
N1230      H1233   1.046       .  S
N1230      H1234   1.046       .  S
C1235      C1236   1.405       .  A
C1235      C1240   1.407       .  A
C1235      H1242   1.084       .  S
C1236      C1237   1.413       .  A
C1237      C1238   1.403       .  A
C1237      N1244   1.433       .  S
C1238      C1239   1.407       .  A
C1238      H1243   1.084       .  S
C1239      C1240   1.418       .  A
C1240      N1241   1.432       .  S
N1241      H1245   1.046       .  S
N1241      H1246   1.046       .  S
N1244      H1247   1.046   1_545  S
N1244      H1248   1.046       .  S
C1249      C1250   1.408       .  A
C1249      C1254   1.411       .  A
C1249      H1256   1.084       .  S
C1250      C1251   1.416       .  A
C1251      C1252   1.401       .  A
C1251      N1258   1.439       .  S
C1252      C1253   1.403       .  A
C1252      H1257   1.084       .  S
C1253      C1254   1.409       .  A
C1254      N1255   1.432       .  S
N1255      H1259   1.045       .  S
N1255      H1260   1.046       .  S
N1258      H1261   1.044       .  S
N1258      H1262   1.046       .  S
C1263      C1264   1.406       .  A
C1263      C1268   1.402       .  A
C1263      H1270   1.084       .  S
C1264      C1265   1.412       .  A
C1265      C1266   1.414       .  A
C1265      N1272   1.438       .  S
C1266      C1267   1.413       .  A
C1266      H1271   1.083       .  S
C1267      C1268   1.420       .  A
C1268      N1269   1.432       .  S
N1269      H1273   1.045   1_655  S
N1269      H1274   1.045   1_655  S
N1272      H1275   1.045       .  S
N1272      H1276   1.046       .  S
C1277      C1278   1.401   1_556  A
C1277      C1282   1.406       .  A
C1277      H1284   1.084       .  S
C1278      C1279   1.414       .  A
C1279      C1280   1.406       .  A
C1279      N1286   1.439       .  S
C1280      C1281   1.407   1_554  A
C1280      H1285   1.083       .  S
C1281      C1282   1.419       .  A
C1282      N1283   1.432       .  S
N1283      H1287   1.046       .  S
N1283      H1288   1.046       .  S
N1286      H1289   1.046       .  S
N1286      H1290   1.046       .  S
C1291      C1292   1.404       .  A
C1291      C1296   1.405       .  A
C1291      H1298   1.084       .  S
C1292      C1293   1.419       .  A
C1293      C1294   1.401       .  A
C1293      N1300   1.433       .  S
C1294      C1295   1.400       .  A
C1294      H1299   1.084       .  S
C1295      C1296   1.414       .  A
C1296      N1297   1.432   1_556  S
N1297      H1301   1.046   1_545  S
N1297      H1302   1.046       .  S
N1300      H1303   1.046       .  S
N1300      H1304   1.046       .  S
C1305      C1306   1.408       .  A
C1305      C1310   1.411       .  A
C1305      H1312   1.084       .  S
C1306      C1307   1.412   1_556  A
C1307      C1308   1.403       .  A
C1307      N1314   1.433       .  S
C1308      C1309   1.403   1_554  A
C1308      H1313   1.084       .  S
C1309      C1310   1.417       .  A
C1310      N1311   1.432       .  S
N1311      H1315   1.045       .  S
N1311      H1316   1.045       .  S
N1314      H1317   1.046       .  S
N1314      H1318   1.046       .  S
C1319      C1320   1.408       .  A
C1319      C1324   1.398       .  A
C1319      H1326   1.084       .  S
C1320      C1321   1.415       .  A
C1321      C1322   1.405       .  A
C1321      N1328   1.438       .  S
C1322      C1323   1.406       .  A
C1322      H1327   1.083       .  S
C1323      C1324   1.409       .  A
C1324      N1325   1.433       .  S
N1325      H1329   1.046       .  S
N1325      H1330   1.046       .  S
N1328      H1331   1.046       .  S
N1328      H1332   1.046       .  S
C1333      C1334   1.401       .  A
C1333      C1338   1.401       .  A
C1333      H1340   1.084       .  S
C1334      C1335   1.416       .  A
C1335      C1336   1.404       .  A
C1335      N1342   1.438       .  S
C1336      C1337   1.402       .  A
C1336      H1341   1.084       .  S
C1337      C1338   1.415       .  A
C1338      N1339   1.439       .  S
N1339      H1343   1.046       .  S
N1339      H1344   1.046       .  S
N1342      H1345   1.046       .  S
N1342      H1346   1.046       .  S
C1347      C1348   1.408   1_556  A
C1347      C1352   1.395       .  A
C1347      H1354   1.084       .  S
C1348      C1349   1.417       .  A
C1349      C1350   1.404       .  A
C1349      N1356   1.432       .  S
C1350      C1351   1.411       .  A
C1350      H1355   1.084       .  S
C1351      C1352   1.418   1_554  A
C1352      N1353   1.434       .  S
N1353      H1357   1.046   1_655  S
N1353      H1358   1.045   1_655  S
N1356      H1359   1.046       .  S
N1356      H1360   1.045       .  S
