geometry optimzed in LAMMPS
_audit_creation_date              2020-11-30 
_audit_creation_method            'lammps2cif' 
_symmetry_space_group_name_H-M    'P1' 
_symmetry_Int_Tables_number       1 
_symmetry_cell_setting            triclinic 
loop_ 
_symmetry_equiv_pos_as_xyz 
  x,y,z 
_cell_length_a                    54.27936981 
_cell_length_b                    54.436110516025735 
_cell_length_c                    54.352938666961464 
_cell_angle_alpha                 89.9491544879446 
_cell_angle_beta                  89.9774386367961 
_cell_angle_gamma                 90.06380721124997 
loop_ 
_atom_site_label 
_atom_site_type_symbol 
_atom_site_fract_x 
_atom_site_fract_y 
_atom_site_fract_z 
_atom_site_charge 
N1          N  0.64345174  0.20117442  0.84298376    -0.26800
N2          N  0.63805620  0.19903519  0.86659742    -0.34600
C3          C  0.63840823  0.22154976  0.87688962     0.01600
C4          C  0.64451448  0.23861669  0.85885280     0.07600
C5          C  0.64749852  0.22492455  0.83764020    -0.05500
H6          H  0.63506690  0.22514096  0.89617320     0.08300
H7          H  0.65317827  0.23162484  0.81976279     0.09500
Cu8        Cu  0.63253985  0.16509126  0.88351409     0.44200
Cu9        Cu  0.64683092  0.17182442  0.81911619     0.42000
Cu10       Cu  0.63428727  0.11170774  0.84163158     0.43900
N11         N  0.62891997  0.12858428  0.89458053    -0.34100
N12         N  0.62856902  0.10965917  0.87928964    -0.28400
C13         C  0.62786683  0.08874909  0.89239996    -0.04500
C14         C  0.62780149  0.09465054  0.91705160     0.07700
C15         C  0.62882997  0.12002303  0.91783744     0.01500
H16         H  0.62962583  0.07053944  0.88457132     0.09200
H17         H  0.63105211  0.13134455  0.93405705     0.08200
N18         N  0.64532586  0.11828811  0.80570438    -0.35600
N19         N  0.65020917  0.14066236  0.79766979    -0.27800
C20         C  0.65779046  0.13941525  0.77420003    -0.03000
C21         C  0.65761775  0.11504841  0.76692810     0.05600
C22         C  0.64964055  0.10211142  0.78745282     0.03700
H23         H  0.66329876  0.15512212  0.76328446     0.08800
H24         H  0.64715630  0.08246006  0.78901389     0.07600
N25         N  0.99058332  0.19424862  0.52251533    -0.26800
N26         N  0.01419061  0.19085239  0.51768351    -0.34600
C27         C  0.02497778  0.21288700  0.51424223     0.01600
C28         C  0.00725760  0.23100168  0.51722512     0.07600
C29         C  0.98571313  0.21840806  0.52231785    -0.05500
H30         H  0.04451660  0.21556511  0.51128107     0.08300
H31         H  0.96814856  0.22633148  0.52736927     0.09500
Cu32       Cu  0.03087303  0.15665287  0.52024806     0.44200
Cu33       Cu  0.96666992  0.16658819  0.53314096     0.42000
Cu34       Cu  0.99230448  0.10762101  0.54682657     0.43900
N35         N  0.04306629  0.12138032  0.52818776    -0.34100
N36         N  0.02959892  0.10415749  0.53896083    -0.28400
C37         C  0.04305359  0.08349105  0.54082069    -0.04500
C38         C  0.06588134  0.08785961  0.53048592     0.07700
C39         C  0.06520278  0.11192737  0.52246835     0.01500
H40         H  0.03600518  0.06602260  0.54726053     0.09200
H41         H  0.07936818  0.12154590  0.51225468     0.08200
N42         N  0.95499998  0.11534269  0.55041217    -0.35600
N43         N  0.94578687  0.13730092  0.54564994    -0.27800
C44         C  0.92137621  0.13692161  0.54970972    -0.03000
C45         C  0.91483038  0.11355007  0.55720003     0.05600
C46         C  0.93656146  0.10024515  0.55735150     0.03700
H47         H  0.90919144  0.15241153  0.54697889     0.08800
H48         H  0.93878203  0.08106679  0.56208035     0.07600
N49         N  0.97706451  0.45157051  0.80077282    -0.26800
N50         N  0.00026648  0.45089218  0.80806801    -0.34600
C51         C  0.01476342  0.44644728  0.78844684     0.01600
C52         C  0.99979692  0.44430102  0.76793411     0.07600
C53         C  0.97606553  0.44755140  0.77646488    -0.05500
H54         H  0.03465391  0.44562315  0.78894819     0.08300
H55         H  0.95932339  0.44755216  0.76568719     0.09500
Cu56       Cu  0.01047925  0.45755505  0.84419795     0.44200
Cu57       Cu  0.94773280  0.45906810  0.82360810     0.42000
Cu58       Cu  0.96074953  0.47358916  0.88690390     0.43900
N59         N  0.01577271  0.46702712  0.88075791    -0.34100
N60         N  0.99797632  0.47373858  0.89599833    -0.28400
C61         C  0.00805967  0.48011323  0.91770541    -0.04500
C62         C  0.03324554  0.47685830  0.91603974     0.07700
C63         C  0.03753598  0.46857365  0.89246818     0.01500
H64         H  0.99781395  0.48655691  0.93351287     0.09200
H65         H  0.05522837  0.46462024  0.88418383     0.08200
N66         N  0.92529480  0.47021421  0.87283539    -0.35600
N67         N  0.92071460  0.46527432  0.84947686    -0.27800
C68         C  0.89630360  0.46283748  0.84625514    -0.03000
C69         C  0.88493051  0.46627150  0.86870119     0.05600
C70         C  0.90381844  0.47088944  0.88518782     0.03700
H71         H  0.88760334  0.45764747  0.82912570     0.08800
H72         H  0.90213781  0.47359563  0.90481538     0.07600
N73         N  0.74632415  0.42615498  0.88416395    -0.26800
N74         N  0.74134652  0.44870118  0.89161809    -0.34600
C75         C  0.76252525  0.46149422  0.89309338     0.01600
C76         C  0.78167360  0.44610975  0.88635923     0.07600
C77         C  0.77072973  0.42386692  0.88086535    -0.05500
H78         H  0.76382232  0.48067182  0.89808067     0.08300
H79         H  0.77973348  0.40751287  0.87404653     0.09500
Cu80       Cu  0.70569164  0.46102017  0.89759680     0.44200
Cu81       Cu  0.71964077  0.40017948  0.87690830     0.42000
Cu82       Cu  0.65573396  0.41895049  0.88060744     0.43900
N83         N  0.66859690  0.47012468  0.89893583    -0.34100
N84         N  0.65047269  0.45559503  0.89152621    -0.28400
C85         C  0.62908487  0.46813475  0.89305204    -0.04500
C86         C  0.63405001  0.49135610  0.90227137     0.07700
C87         C  0.65920482  0.49190865  0.90588440     0.01500
H88         H  0.61120519  0.46077329  0.88819425     0.09200
H89         H  0.67002215  0.50729052  0.91241589     0.08200
N90         N  0.66703604  0.38297340  0.87244882    -0.35600
N91         N  0.69049466  0.37658268  0.87102747    -0.27800
C92         C  0.69214954  0.35230109  0.86701780    -0.03000
C93         C  0.66862240  0.34267577  0.86598771     0.05600
C94         C  0.65309295  0.36265452  0.86938887     0.03700
H95         H  0.70927765  0.34224669  0.86583667     0.08800
H96         H  0.63321210  0.36223958  0.87062138     0.07600
N97         N  0.00570636  0.36542441  0.56774829    -0.26800
N98         N  0.00524778  0.37461622  0.54524228    -0.34600
C99         C  0.00664564  0.35601783  0.52895138     0.01600
C100        C  0.00809870  0.33411499  0.54192619     0.07600
C101        C  0.00727170  0.34086240  0.56643868    -0.05500
H102        H  0.00744519  0.35833511  0.50920140     0.08300
H103        H  0.00834109  0.32881222  0.58223736     0.09500
Cu104      Cu  0.00555326  0.41217241  0.53826755     0.44200
Cu105      Cu  0.00742640  0.38637925  0.59938552     0.42000
Cu106      Cu  0.02802720  0.44850243  0.58971924     0.43900
N107        N  0.01377529  0.44941454  0.53610528    -0.34100
N108        N  0.02394984  0.46203395  0.55425853    -0.28400
C109        C  0.03038163  0.48442090  0.54588988    -0.04500
C110        C  0.02333447  0.48612955  0.52152647     0.07700
C111        C  0.01286914  0.46367896  0.51591043     0.01500
H112        H  0.03974385  0.49829797  0.55666956     0.09200
H113        H  0.00659769  0.45758312  0.49800932     0.08200
N114        N  0.02364616  0.43285575  0.62425141    -0.35600
N115        N  0.01505908  0.41041206  0.62779450    -0.27800
C116        C  0.01186737  0.40666248  0.65203649    -0.03000
C117        C  0.01881398  0.42778312  0.66440504     0.05600
C118        C  0.02630982  0.44394905  0.64616733     0.03700
H119        H  0.00415006  0.39012481  0.65998017     0.08800
H120        H  0.03237776  0.46272496  0.64855639     0.07600
N121        N  0.77592670  0.08044616  0.59073941    -0.26800
N122        N  0.77196306  0.08374833  0.56698099    -0.34600
C123        C  0.79369307  0.08764173  0.55564545     0.01600
C124        C  0.81230854  0.08678916  0.57310947     0.07600
C125        C  0.80026416  0.08197985  0.59511473    -0.05500
H126        H  0.79565630  0.09188907  0.53631405     0.08300
H127        H  0.80850359  0.08056648  0.61316808     0.09500
Cu128      Cu  0.73690219  0.08426696  0.55158876     0.44200
Cu129      Cu  0.74785798  0.07700313  0.61657986     0.42000
Cu130      Cu  0.68569441  0.07218953  0.59334064     0.43900
N131        N  0.70020132  0.08248517  0.54078408    -0.34100
N132        N  0.68181520  0.07659154  0.55567173    -0.28400
C133        C  0.66063064  0.07657518  0.54282096    -0.04500
C134        C  0.66595201  0.08314569  0.51887180     0.07700
C135        C  0.69110305  0.08691160  0.51819728     0.01500
H136        H  0.64259361  0.07312994  0.55060014     0.09200
H137        H  0.70199446  0.09248150  0.50247036     0.08200
N138        N  0.69402776  0.07574859  0.63037150    -0.35600
N139        N  0.71674441  0.07765531  0.63890487    -0.27800
C140        C  0.71580300  0.08230651  0.66319885    -0.03000
C141        C  0.69131532  0.08348602  0.67032180     0.05600
C142        C  0.67806021  0.07919220  0.64896926     0.03700
H143        H  0.73174556  0.08581103  0.67459388     0.08800
H144        H  0.65824268  0.07948043  0.64688229     0.07600
N145        N  0.20067832  0.48032545  0.80092238    -0.26800
N146        N  0.17812672  0.48677752  0.80752177    -0.34600
C147        C  0.16312163  0.48517827  0.78789873     0.01600
C148        C  0.17677996  0.47735431  0.76790315     0.07600
C149        C  0.20055398  0.47456281  0.77680839    -0.05500
H150        H  0.14352277  0.48867617  0.78835907     0.08300
H151        H  0.21634658  0.46779353  0.76674394     0.09500
Cu152      Cu  0.16758189  0.49482290  0.84333962     0.44200
Cu153      Cu  0.23003046  0.47735116  0.82562609     0.42000
Cu154      Cu  0.21267832  0.48276750  0.89012699     0.43900
N155        N  0.15949324  0.49601545  0.88065370    -0.34100
N156        N  0.17575186  0.49020943  0.89781241    -0.28400
C157        C  0.16427434  0.48958776  0.91977647    -0.04500
C158        C  0.13980533  0.49583652  0.91631443     0.07700
C159        C  0.13738233  0.49973862  0.89129652     0.01500
H160        H  0.17299197  0.48451218  0.93696350     0.09200
H161        H  0.12051354  0.50355512  0.88138433     0.08200
N162        N  0.24865302  0.47649969  0.87810727    -0.35600
N163        N  0.25501879  0.47429410  0.85471774    -0.27800
C164        C  0.27937270  0.46960932  0.85343753    -0.03000
C165        C  0.28889606  0.46889902  0.87714450     0.05600
C166        C  0.26879614  0.47347576  0.89223502     0.03700
H167        H  0.28933615  0.46648509  0.83649392     0.08800
H168        H  0.26877252  0.47444988  0.91210205     0.07600
N169        N  0.22048558  0.20612436  0.53103395    -0.26800
N170        N  0.19789534  0.19715273  0.53170814    -0.34600
C171        C  0.18208183  0.21529519  0.53722004     0.01600
C172        C  0.19536194  0.23682869  0.54007586     0.07600
C173        C  0.21968011  0.23031463  0.53590622    -0.05500
H174        H  0.16247261  0.21281392  0.53975696     0.08300
H175        H  0.23568776  0.24211531  0.53699290     0.09500
Cu176      Cu  0.19009992  0.16038055  0.52684133     0.44200
Cu177      Cu  0.25125410  0.18412918  0.52705571     0.42000
Cu178      Cu  0.24079951  0.11755675  0.53053299     0.43900
N179        N  0.18608301  0.12280128  0.52401174    -0.34100
N180        N  0.20425042  0.10679413  0.52636364    -0.28400
C181        C  0.19493585  0.08389499  0.52444417    -0.04500
C182        C  0.16986466  0.08589169  0.52039309     0.07700
C183        C  0.16491609  0.11068897  0.52012000     0.01500
H184        H  0.20567136  0.06717105  0.52531059     0.09200
H185        H  0.14715025  0.11934047  0.51747681     0.08200
N186        N  0.27521505  0.13430794  0.53275461    -0.35600
N187        N  0.27888845  0.15827093  0.53087229    -0.27800
C188        C  0.30292919  0.16310309  0.53421947    -0.03000
C189        C  0.31503916  0.14118935  0.53852615     0.05600
C190        C  0.29691632  0.12329855  0.53735511     0.03700
H191        H  0.31087681  0.18133674  0.53423662     0.08800
H192        H  0.29919478  0.10380094  0.54046824     0.07600
N193        N  0.55744840  0.22491872  0.86432404    -0.26800
N194        N  0.55706252  0.21510614  0.88657419    -0.34600
C195        C  0.55212985  0.23275678  0.90318261     0.01600
C196        C  0.54923319  0.25484146  0.89084553     0.07600
C197        C  0.55288068  0.24917368  0.86623159    -0.05500
H198        H  0.54967637  0.22954350  0.92266213     0.08300
H199        H  0.55089891  0.26151173  0.85074640     0.09500
Cu200      Cu  0.56035692  0.17766911  0.89289480     0.44200
Cu201      Cu  0.56118281  0.20389981  0.83240006     0.42000
Cu202      Cu  0.57409591  0.13847461  0.84070371     0.43900
N203        N  0.56177129  0.13963565  0.89475315    -0.34100
N204        N  0.56744398  0.12519318  0.87601920    -0.28400
C205        C  0.56543621  0.10157703  0.88327020    -0.04500
C206        C  0.55805512  0.10133385  0.90761630     0.07700
C207        C  0.55581591  0.12566832  0.91426728     0.01500
H208        H  0.56813934  0.08582886  0.87143009     0.09200
H209        H  0.54973858  0.13273334  0.93187237     0.08200
N210        N  0.57070736  0.15545206  0.80654299    -0.35600
N211        N  0.56443314  0.17873007  0.80357317    -0.27800
C212        C  0.55934040  0.18263864  0.77964003    -0.03000
C213        C  0.56275113  0.16087318  0.76672952     0.05600
C214        C  0.57032949  0.14417505  0.78452257     0.03700
H215        H  0.55240560  0.19979689  0.77240954     0.08800
H216        H  0.57425603  0.12488071  0.78192084     0.07600
N217        N  0.42492881  0.42845812  0.91635951    -0.26800
N218        N  0.42888198  0.45223833  0.91917954    -0.34600
C219        C  0.40811031  0.46460607  0.91385274     0.01600
C220        C  0.39008463  0.44782828  0.90728286     0.07600
C221        C  0.40142456  0.42505141  0.90914943    -0.05500
H222        H  0.40630893  0.48437577  0.91457921     0.08300
H223        H  0.39330654  0.40735836  0.90512217     0.09500
Cu224      Cu  0.46278550  0.46657800  0.92900259     0.44200
Cu225      Cu  0.45249700  0.40228102  0.92163251     0.42000
Cu226      Cu  0.51182333  0.42384127  0.94500806     0.43900
N227        N  0.49868765  0.47696673  0.93640189    -0.34100
N228        N  0.51633675  0.46175323  0.94343166    -0.28400
C229        C  0.53780953  0.47413732  0.94415166    -0.04500
C230        C  0.53340713  0.49808069  0.93691552     0.07700
C231        C  0.50851912  0.49919412  0.93200319     0.01500
H232        H  0.55563171  0.46573940  0.94719088     0.09200
H233        H  0.49856235  0.51457257  0.92421345     0.08200
N234        N  0.50456926  0.38746508  0.93572837    -0.35600
N235        N  0.48331262  0.37990755  0.92654119    -0.27800
C236        C  0.48561715  0.35635432  0.91943914    -0.03000
C237        C  0.50942300  0.34854059  0.92437193     0.05600
C238        C  0.52084895  0.36881662  0.93485530     0.03700
H239        H  0.47130836  0.34601845  0.91024996     0.08800
H240        H  0.53986860  0.37023739  0.94057464     0.07600
N241        N  0.45456007  0.12707664  0.58213292    -0.26800
N242        N  0.45934881  0.12616887  0.55832643    -0.34600
C243        C  0.43805935  0.12732657  0.54574982     0.01600
C244        C  0.41881897  0.12889119  0.56243674     0.07600
C245        C  0.43003711  0.12857662  0.58536108    -0.05500
H246        H  0.43675235  0.12766206  0.52590590     0.08300
H247        H  0.42109048  0.12981078  0.60310592     0.09500
Cu248      Cu  0.49470523  0.12432172  0.54420674     0.44200
Cu249      Cu  0.48188984  0.12893909  0.60879016     0.42000
Cu250      Cu  0.54467937  0.13754251  0.58667414     0.43900
N251        N  0.53156544  0.12363209  0.53448332    -0.34100
N252        N  0.54979798  0.12963858  0.54948460    -0.28400
C253        C  0.57131022  0.12705653  0.53739636    -0.04500
C254        C  0.56626471  0.11880521  0.51387179     0.07700
C255        C  0.54097571  0.11659359  0.51272268     0.01500
H256        H  0.58932486  0.12957875  0.54557745     0.09200
H257        H  0.53020044  0.10987656  0.49736128     0.08200
N258        N  0.53450937  0.13988055  0.62361783    -0.35600
N259        N  0.51179167  0.13601562  0.63157368    -0.27800
C260        C  0.51136784  0.13823300  0.65621416    -0.03000
C261        C  0.53491229  0.14379202  0.66426048     0.05600
C262        C  0.54911614  0.14471966  0.64307287     0.03700
H263        H  0.49503913  0.13619549  0.66745146     0.08800
H264        H  0.56866964  0.14835645  0.64192254     0.07600
N265        N  0.14780116  0.36684061  0.58781390    -0.26800
N266        N  0.14823569  0.37232926  0.56412758    -0.34600
C267        C  0.15428149  0.35213264  0.55127179     0.01600
C268        C  0.15787106  0.33296400  0.56762716     0.07600
C269        C  0.15353303  0.34296342  0.59065965    -0.05500
H270        H  0.15672571  0.35164807  0.53153504     0.08300
H271        H  0.15503973  0.33374689  0.60823265     0.09500
Cu272      Cu  0.14191644  0.40731778  0.55042093     0.44200
Cu273      Cu  0.14174219  0.39273895  0.61512969     0.42000
Cu274      Cu  0.12705194  0.45463112  0.59472000     0.43900
N275        N  0.13421523  0.44343232  0.54098122    -0.34100
N276        N  0.12747425  0.46045964  0.55696935    -0.28400
C277        C  0.12478459  0.48200396  0.54507694    -0.04500
C278        C  0.13034128  0.47832045  0.52055167     0.07700
C279        C  0.13643425  0.45377513  0.51862313     0.01500
H280        H  0.12092858  0.49938580  0.55394542     0.09200
H281        H  0.14293903  0.44432583  0.50234263     0.08200
N282        N  0.13445711  0.44541047  0.63106355    -0.35600
N283        N  0.13961571  0.42283631  0.63844760    -0.27800
C284        C  0.14551927  0.42334357  0.66246242    -0.03000
C285        C  0.14419067  0.44738066  0.67058658     0.05600
C286        C  0.13709969  0.46089105  0.65019408     0.03700
H287        H  0.15148597  0.40754390  0.67297074     0.08800
H288        H  0.13482229  0.48059405  0.64913376     0.07600
N289        N  0.54381025  0.88003929  0.83776368    -0.26800
N290        N  0.55251142  0.88876037  0.85870373    -0.34600
C291        C  0.55410721  0.87042297  0.87519009     0.01600
C292        C  0.54605281  0.84902500  0.86412215     0.07600
C293        C  0.53976885  0.85575681  0.84033727    -0.05500
H294        H  0.55907783  0.87282726  0.89428881     0.08300
H295        H  0.53118148  0.84423572  0.82657890     0.09500
Cu296      Cu  0.55615774  0.92579365  0.86583679     0.44200
Cu297      Cu  0.53401967  0.90285922  0.80863813     0.42000
Cu298      Cu  0.51973636  0.96575966  0.82716515     0.43900
N299        N  0.54685122  0.96127841  0.87524794    -0.34100
N300        N  0.53143472  0.97505459  0.86242769    -0.28400
C301        C  0.52639273  0.99549826  0.87542104    -0.04500
C302        C  0.53967704  0.99458309  0.89714024     0.07700
C303        C  0.55250929  0.97275265  0.89636872     0.01500
H304        H  0.51428247  0.01008033  0.86935490     0.09200
H305        H  0.56422874  0.96521735  0.91060213     0.08200
N306        N  0.51798169  0.95325381  0.79100054    -0.35600
N307        N  0.52369234  0.93058222  0.78434982    -0.27800
C308        C  0.52193515  0.92875415  0.75974991    -0.03000
C309        C  0.51476864  0.95129358  0.75036570     0.05600
C310        C  0.51245495  0.96641993  0.77072616     0.03700
H311        H  0.52570370  0.91222330  0.74940554     0.08800
H312        H  0.50713946  0.98556234  0.77081102     0.07600
N313        N  0.21827874  0.86243848  0.48280324    -0.26800
N314        N  0.19522235  0.86994265  0.48496538    -0.34600
C315        C  0.18107856  0.85086295  0.49189454     0.01600
C316        C  0.19595756  0.83038445  0.49451679     0.07600
C317        C  0.21940929  0.83839428  0.48844050    -0.05500
H318        H  0.16164096  0.85214074  0.49606741     0.08300
H319        H  0.23629307  0.82794429  0.48967428     0.09500
Cu320      Cu  0.18448463  0.90641190  0.48257267     0.44200
Cu321      Cu  0.24778158  0.88595022  0.47660784     0.42000
Cu322      Cu  0.23334170  0.95085996  0.47602048     0.43900
N323        N  0.17880703  0.94407849  0.48269320    -0.34100
N324        N  0.19662170  0.96034659  0.47940890    -0.28400
C325        C  0.18735494  0.98308964  0.48209537    -0.04500
C326        C  0.16262723  0.98093864  0.48753768     0.07700
C327        C  0.15778969  0.95603763  0.48792984     0.01500
H328        H  0.19815681  0.99981454  0.48173165     0.09200
H329        H  0.14053815  0.94723210  0.49268182     0.08200
N330        N  0.26877902  0.93714909  0.47867518    -0.35600
N331        N  0.27420202  0.91350913  0.47806137    -0.27800
C332        C  0.29844742  0.91073886  0.48231197    -0.03000
C333        C  0.30877426  0.93372913  0.48630705     0.05600
C334        C  0.28931595  0.94998978  0.48372892     0.03700
H335        H  0.30758947  0.89314835  0.48355981     0.08800
H336        H  0.28972711  0.96960694  0.48675545     0.07600
N337        N  0.20372554  0.63178422  0.80132235    -0.26800
N338        N  0.18114271  0.62441912  0.80670431    -0.34600
C339        C  0.16798650  0.62262146  0.78577675     0.01600
C340        C  0.18310540  0.62906100  0.76628809     0.07600
C341        C  0.20560843  0.63472778  0.77683202    -0.05500
H342        H  0.14883996  0.61718167  0.78483869     0.08300
H343        H  0.22202539  0.64096267  0.76740779     0.09500
Cu344      Cu  0.16931872  0.61835084  0.84247450     0.44200
Cu345      Cu  0.23063864  0.63849235  0.82766249     0.42000
Cu346      Cu  0.21100558  0.63909091  0.89121262     0.43900
N347        N  0.16071733  0.61781601  0.87964563    -0.34100
N348        N  0.17501114  0.62692442  0.89715048    -0.28400
C349        C  0.16313525  0.62513227  0.91884667    -0.04500
C350        C  0.14062493  0.61395055  0.91477086     0.07700
C351        C  0.13972847  0.60943808  0.88980931     0.01500
H352        H  0.17068508  0.63077231  0.93639524     0.09200
H353        H  0.12474095  0.60105593  0.87968721     0.08200
N354        N  0.24736640  0.64525332  0.88026942    -0.35600
N355        N  0.25443796  0.64457570  0.85698874    -0.27800
C356        C  0.27903382  0.64741913  0.85588141    -0.03000
C357        C  0.28798939  0.65003230  0.87957335     0.05600
C358        C  0.26737269  0.64864130  0.89459463     0.03700
H359        H  0.28970552  0.64712880  0.83907228     0.08800
H360        H  0.26706320  0.64917590  0.91447912     0.07600
N361        N  0.42968612  0.67770070  0.90614317    -0.26800
N362        N  0.43201330  0.65433830  0.91227396    -0.34600
C363        C  0.40967042  0.64354520  0.91123826     0.01600
C364        C  0.39239572  0.66084683  0.90363720     0.07600
C365        C  0.40598907  0.68225946  0.90053058    -0.05500
H366        H  0.40631619  0.62446317  0.91563662     0.08300
H367        H  0.39924214  0.69987677  0.89427272     0.09500
Cu368      Cu  0.46616713  0.63839302  0.91993786     0.44200
Cu369      Cu  0.45888412  0.70243295  0.90645806     0.42000
Cu370      Cu  0.51859271  0.68024999  0.92668279     0.43900
N371        N  0.50261286  0.62707865  0.92503331    -0.34100
N372        N  0.52129914  0.64222205  0.92900162    -0.28400
C373        C  0.54224831  0.62907543  0.93067953    -0.04500
C374        C  0.53655559  0.60456800  0.92728594     0.07700
C375        C  0.51135928  0.60398831  0.92347391     0.01500
H376        H  0.56049080  0.63696229  0.93228597     0.09200
H377        H  0.50030480  0.58802910  0.91906369     0.08200
N378        N  0.51202159  0.71640702  0.91622434    -0.35600
N379        N  0.49018593  0.72432508  0.90891095    -0.27800
C380        C  0.49217382  0.74791265  0.90187688    -0.03000
C381        C  0.51642640  0.75520478  0.90463525     0.05600
C382        C  0.52855034  0.73475514  0.91376148     0.03700
H383        H  0.47725484  0.75869294  0.89430673     0.08800
H384        H  0.54801307  0.73311369  0.91762961     0.07600
N385        N  0.16480318  0.65815440  0.62497081    -0.26800
N386        N  0.16321974  0.63418396  0.62131252    -0.34600
C387        C  0.16283616  0.62271284  0.64323352     0.01600
C388        C  0.16446244  0.64023906  0.66163309     0.07600
C389        C  0.16558281  0.66251005  0.64933345    -0.05500
H390        H  0.16210823  0.60299884  0.64557751     0.08300
H391        H  0.16780944  0.68049972  0.65746999     0.09500
Cu392      Cu  0.16260334  0.61771145  0.58682717     0.44200
Cu393      Cu  0.16693560  0.68392446  0.59677319     0.42000
Cu394      Cu  0.15331975  0.65992832  0.53663590     0.43900
N395        N  0.15772492  0.60655966  0.55060627    -0.34100
N396        N  0.15290942  0.62218797  0.53260121    -0.28400
C397        C  0.14880224  0.60961615  0.51175207    -0.04500
C398        C  0.15148892  0.58495480  0.51680162     0.07700
C399        C  0.15720466  0.58353248  0.54154588     0.01500
H400        H  0.14439179  0.61785986  0.49416781     0.09200
H401        H  0.16004812  0.56703460  0.55229194     0.08200
N402        N  0.16077842  0.69656985  0.54321604    -0.35600
N403        N  0.16692708  0.70528619  0.56503448    -0.27800
C404        C  0.17318722  0.72908988  0.56260940    -0.03000
C405        C  0.17068232  0.73575351  0.53806281     0.05600
C406        C  0.16259956  0.71460009  0.52641239     0.03700
H407        H  0.17972422  0.74049476  0.57751080     0.08800
H408        H  0.15877262  0.71226976  0.50703260     0.07600
N409        N  0.43674782  0.96892308  0.54851134    -0.26800
N410        N  0.44555792  0.97112462  0.52594856    -0.34600
C411        C  0.42743119  0.96624714  0.50976057     0.01600
C412        C  0.40615403  0.96072065  0.52277442     0.07600
C413        C  0.41280024  0.96270217  0.54730411    -0.05500
H414        H  0.42973660  0.96610706  0.48998689     0.08300
H415        H  0.40116135  0.95951258  0.56315636     0.09500
Cu416      Cu  0.48222338  0.97942822  0.51861681     0.44200
Cu417      Cu  0.45813070  0.97271304  0.57990198     0.42000
Cu418      Cu  0.52385174  0.98022489  0.57162809     0.43900
N419        N  0.52002732  0.98513747  0.51616142    -0.34100
N420        N  0.53524335  0.98457909  0.53519854    -0.28400
C421        C  0.55853338  0.98688723  0.52692898    -0.04500
C422        C  0.55783093  0.98940773  0.50163119     0.07700
C423        C  0.53320743  0.98820201  0.49539740     0.01500
H424        H  0.57479317  0.98649438  0.53846481     0.09200
H425        H  0.52549321  0.98852405  0.47702814     0.08200
N426        N  0.50715180  0.97590721  0.60596080    -0.35600
N427        N  0.48306192  0.97372602  0.60879641    -0.27800
C428        C  0.47793382  0.97077598  0.63281385    -0.03000
C429        C  0.49983061  0.97081819  0.64590833     0.05600
C430        C  0.51799326  0.97420809  0.62820707     0.03700
H431        H  0.45956424  0.96833627  0.64014063     0.08800
H432        H  0.53767726  0.97468594  0.63119191     0.07600
N433        N  0.93391684  0.94712903  0.51582759    -0.26800
N434        N  0.94360629  0.96935868  0.51443791    -0.34600
C435        C  0.92603917  0.98604994  0.51959975     0.01600
C436        C  0.90425730  0.97360621  0.52433535     0.07600
C437        C  0.90997142  0.94899786  0.52174555    -0.05500
H438        H  0.92892331  0.00570951  0.52001624     0.08300
H439        H  0.89772972  0.93353518  0.52453028     0.09500
Cu440      Cu  0.98058647  0.97507542  0.50658673     0.44200
Cu441      Cu  0.95411672  0.91522539  0.51167804     0.42000
Cu442      Cu  0.02007523  0.92028266  0.50535973     0.43900
N443        N  0.01850529  0.97565822  0.50176731    -0.34100
N444        N  0.03285397  0.95600851  0.50226935    -0.28400
C445        C  0.05654595  0.96326080  0.50187041    -0.04500
C446        C  0.05701161  0.98856222  0.50058461     0.07700
C447        C  0.03270141  0.99585933  0.50058798     0.01500
H448        H  0.07222295  0.95105800  0.50327630     0.09200
H449        H  0.02584879  0.01451958  0.50135266     0.08200
N450        N  0.00190933  0.88712790  0.50986883    -0.35600
N451        N  0.97770060  0.88543913  0.51180479    -0.27800
C452        C  0.97152112  0.86194080  0.51604272    -0.03000
C453        C  0.99285471  0.84811493  0.51699923     0.05600
C454        C  0.01181450  0.86467350  0.51290199     0.03700
H455        H  0.95288750  0.85553239  0.51907039     0.08800
H456        H  0.03136442  0.86089439  0.51316817     0.07600
N457        N  0.66396796  0.94744703  0.79138857    -0.26800
N458        N  0.66924402  0.96944916  0.80029720    -0.34600
C459        C  0.67491247  0.98450333  0.78139114     0.01600
C460        C  0.67330082  0.97121307  0.75969436     0.07600
C461        C  0.66633211  0.94783746  0.76677518    -0.05500
H462        H  0.68031835  0.00354390  0.78330768     0.08300
H463        H  0.66346248  0.93213890  0.75490057     0.09500
Cu464      Cu  0.66891870  0.97750449  0.83796204     0.44200
Cu465      Cu  0.65468282  0.91728898  0.81271413     0.42000
Cu466      Cu  0.65063738  0.92662549  0.87787469     0.43900
N467        N  0.66381679  0.98069166  0.87602102    -0.34100
N468        N  0.65576676  0.96248216  0.89006238    -0.28400
C469        C  0.65171729  0.97102081  0.91294586    -0.04500
C470        C  0.65808533  0.99559182  0.91356913     0.07700
C471        C  0.66568255  0.00115929  0.88987580     0.01500
H472        H  0.64447901  0.96015769  0.92799435     0.09200
H473        H  0.67089605  0.01905332  0.88291847     0.08200
N474        N  0.64870297  0.89212592  0.86159201    -0.35600
N475        N  0.64961361  0.88886699  0.83752800    -0.27800
C476        C  0.64998992  0.86467013  0.83266363    -0.03000
C477        C  0.64965666  0.85196354  0.85475187     0.05600
C478        C  0.64869375  0.87001351  0.87270905     0.03700
H479        H  0.65182768  0.85693662  0.81441665     0.08800
H480        H  0.64951728  0.86730155  0.89239983     0.07600
N481        N  0.97308957  0.63005590  0.80006943    -0.26800
N482        N  0.99664127  0.62704982  0.80552851    -0.34600
C483        C  0.01007650  0.62925360  0.78481872     0.01600
C484        C  0.99424815  0.63377287  0.76533130     0.07600
C485        C  0.97094382  0.63404878  0.77574771    -0.05500
H486        H  0.02995869  0.62815989  0.78410069     0.08300
H487        H  0.95364554  0.63715008  0.76636716     0.09500
Cu488      Cu  0.00965722  0.62091252  0.84097658     0.44200
Cu489      Cu  0.94475216  0.63014282  0.82585327     0.42000
Cu490      Cu  0.96418070  0.62888892  0.88893516     0.43900
N491        N  0.01733411  0.61775547  0.87832120    -0.34100
N492        N  0.00086063  0.62203105  0.89573084    -0.28400
C493        C  0.01147082  0.61929004  0.91789386    -0.04500
C494        C  0.03566337  0.61266103  0.91422062     0.07700
C495        C  0.03883876  0.61168012  0.88900725     0.01500
H496        H  0.00201428  0.62111971  0.93532558     0.09200
H497        H  0.05552716  0.60699210  0.87917478     0.08200
N498        N  0.92777264  0.63139450  0.87855188    -0.35600
N499        N  0.92040742  0.63161254  0.85538816    -0.27800
C500        C  0.89567115  0.63317351  0.85490479    -0.03000
C501        C  0.88716544  0.63394573  0.87894680     0.05600
C502        C  0.90804673  0.63274330  0.89342689     0.03700
H503        H  0.88470567  0.63399709  0.83831304     0.08800
H504        H  0.90886749  0.63278515  0.91330688     0.07600
N505        N  0.02325294  0.66782791  0.62549171    -0.26800
N506        N  0.02298250  0.64385846  0.62201764    -0.34600
C507        C  0.02008120  0.63257655  0.64383268     0.01600
C508        C  0.01869414  0.65034030  0.66207862     0.07600
C509        C  0.02109696  0.67249822  0.64965673    -0.05500
H510        H  0.01781903  0.61296369  0.64604169     0.08300
H511        H  0.02015020  0.69076608  0.65740940     0.09500
Cu512      Cu  0.02427877  0.62834548  0.58736230     0.44200
Cu513      Cu  0.02085714  0.69255689  0.59676702     0.42000
Cu514      Cu  0.00612440  0.66774445  0.53616092     0.43900
N515        N  0.02324146  0.61718858  0.55104695    -0.34100
N516        N  0.01509109  0.63085762  0.53262788    -0.28400
C517        C  0.01591801  0.61757378  0.51177348    -0.04500
C518        C  0.02544418  0.59474279  0.51742317     0.07700
C519        C  0.03005540  0.59513394  0.54234693     0.01500
H520        H  0.01093280  0.62437249  0.49373495     0.09200
H521        H  0.03761631  0.58042149  0.55340992     0.08200
N522        N  0.00432702  0.70478685  0.54498701    -0.35600
N523        N  0.01031263  0.71354430  0.56689601    -0.27800
C524        C  0.00804469  0.73804572  0.56664452    -0.03000
C525        C  0.00033796  0.74524179  0.54354279     0.05600
C526        C  0.99819531  0.72367372  0.53020629     0.03700
H527        H  0.01211598  0.74994775  0.58224304     0.08800
H528        H  0.99276440  0.72184136  0.51101720     0.07600
N529        N  0.74866050  0.66802728  0.90108123    -0.26800
N530        N  0.74369010  0.64490316  0.90644082    -0.34600
C531        C  0.76500168  0.63250753  0.90881438     0.01600
C532        C  0.78436457  0.64859372  0.90427943     0.07600
C533        C  0.77317585  0.67096321  0.89957264    -0.05500
H534        H  0.76620692  0.61297423  0.91217903     0.08300
H535        H  0.78212837  0.68777482  0.89380705     0.09500
Cu536      Cu  0.70809969  0.63104542  0.90521699     0.44200
Cu537      Cu  0.72176443  0.69358474  0.89299283     0.42000
Cu538      Cu  0.66031494  0.67156318  0.87937554     0.43900
N539        N  0.67222009  0.62035157  0.89742674    -0.34100
N540        N  0.65532134  0.63435415  0.88685206    -0.28400
C541        C  0.63420206  0.62144742  0.88494678    -0.04500
C542        C  0.63802236  0.59841739  0.89499570     0.07700
C543        C  0.66217806  0.59846341  0.90290335     0.01500
H544        H  0.61686595  0.62893901  0.87858148     0.09200
H545        H  0.67153311  0.58394414  0.91281550     0.08200
N546        N  0.67025096  0.70851618  0.87834849    -0.35600
N547        N  0.69268801  0.71625599  0.88379281    -0.27800
C548        C  0.69358588  0.74078751  0.88157664    -0.03000
C549        C  0.67066923  0.74905232  0.87422883     0.05600
C550        C  0.65623116  0.72809135  0.87246029     0.03700
H551        H  0.70989395  0.75178387  0.88469909     0.08800
H552        H  0.63715936  0.72709203  0.86679744     0.07600
N553        N  0.71869459  0.01315175  0.62721100    -0.26800
N554        N  0.69548301  0.01114149  0.62017873    -0.34600
C555        C  0.68153682  0.00553636  0.63992961     0.01600
C556        C  0.69676527  0.00389015  0.66035950     0.07600
C557        C  0.72015206  0.00905521  0.65154772    -0.05500
H558        H  0.66200750  0.00172060  0.63924455     0.08300
H559        H  0.73717391  0.00873448  0.66187462     0.09500
Cu560      Cu  0.68472149  0.01407109  0.58352878     0.44200
Cu561      Cu  0.74779730  0.01762401  0.60294471     0.42000
Cu562      Cu  0.73289267  0.02770761  0.53872925     0.43900
N563        N  0.67870461  0.01741738  0.54584493    -0.34100
N564        N  0.69593340  0.02328205  0.52962180    -0.28400
C565        C  0.68615149  0.02237394  0.50685797    -0.04500
C566        C  0.66166817  0.01563693  0.50891556     0.07700
C567        C  0.65765169  0.01241005  0.53379948     0.01500
H568        H  0.69653315  0.02466489  0.49000717     0.09200
H569        H  0.64097916  0.00570218  0.54243655     0.08200
N570        N  0.76845700  0.02194730  0.55170075    -0.35600
N571        N  0.77372998  0.01734803  0.57497862    -0.27800
C572        C  0.79737074  0.01013848  0.57665130    -0.03000
C573        C  0.80764525  0.01023791  0.55329560     0.05600
C574        C  0.78872250  0.01812498  0.53802755     0.03700
H575        H  0.80594690  0.00382514  0.59344877     0.08800
H576        H  0.78924251  0.01983240  0.51820223     0.07600
N577        N  0.26118337  0.57039031  0.06488808    -0.26800
N578        N  0.25161272  0.56452129  0.04329179    -0.34600
C579        C  0.26930114  0.56587728  0.02600409     0.01600
C580        C  0.29103912  0.57308767  0.03717202     0.07600
C581        C  0.28522688  0.57558478  0.06184814    -0.05500
H582        H  0.26614185  0.56351063  0.00650372     0.08300
H583        H  0.29713154  0.58255858  0.07618826     0.09500
Cu584      Cu  0.21419406  0.56069878  0.03673636     0.44200
Cu585      Cu  0.24063494  0.57591983  0.09673897     0.42000
Cu586      Cu  0.17672725  0.58684460  0.08484558     0.43900
N587        N  0.17722270  0.56902420  0.03238864    -0.34100
N588        N  0.16419578  0.58027076  0.04956915    -0.28400
C589        C  0.14240696  0.58706804  0.04008861    -0.04500
C590        C  0.14153049  0.57934989  0.01595025     0.07700
C591        C  0.16380283  0.56788372  0.01160101     0.01500
H592        H  0.12846566  0.59734158  0.04990408     0.09200
H593        H  0.17042574  0.56081275  0.99420885     0.08200
N594        N  0.19207027  0.58947697  0.11952927    -0.35600
N595        N  0.21556210  0.58512175  0.12418608    -0.27800
C596        C  0.21957717  0.58816480  0.14843183    -0.03000
C597        C  0.19752769  0.59470627  0.15954018     0.05600
C598        C  0.18054331  0.59536891  0.14058164     0.03700
H599        H  0.23732936  0.58574318  0.15739134     0.08800
H600        H  0.16114435  0.60000285  0.14195649     0.07600
N601        N  0.22289187  0.85783609  0.41114547    -0.26800
N602        N  0.20010155  0.86611600  0.40896078    -0.34600
C603        C  0.18506756  0.84719890  0.40349757     0.01600
C604        C  0.19899500  0.82591193  0.40212377     0.07600
C605        C  0.22288184  0.83341345  0.40729923    -0.05500
H606        H  0.16561412  0.84901094  0.39963372     0.08300
H607        H  0.23924638  0.82209840  0.40732068     0.09500
Cu608      Cu  0.19069896  0.90309405  0.41125327     0.44200
Cu609      Cu  0.25354483  0.88051678  0.41557650     0.42000
Cu610      Cu  0.24094776  0.94600267  0.41806723     0.43900
N611        N  0.18595610  0.94096580  0.41341781    -0.34100
N612        N  0.20426086  0.95666283  0.41682539    -0.28400
C613        C  0.19516921  0.97968679  0.41716048    -0.04500
C614        C  0.17003110  0.97834409  0.41343157     0.07700
C615        C  0.16480415  0.95360463  0.41106989     0.01500
H616        H  0.20617451  0.99618103  0.41896924     0.09200
H617        H  0.14695075  0.94540057  0.40766583     0.08200
N618        N  0.27609428  0.93129610  0.41504206    -0.35600
N619        N  0.28083862  0.90747527  0.41440216    -0.27800
C620        C  0.30510910  0.90428896  0.41035212    -0.03000
C621        C  0.31613567  0.92717257  0.40817304     0.05600
C622        C  0.29713931  0.94382001  0.41132388     0.03700
H623        H  0.31387904  0.88661277  0.40782079     0.08800
H624        H  0.29833738  0.96364999  0.41002233     0.07600
N625        N  0.51352815  0.91577312  0.11108926    -0.26800
N626        N  0.51850044  0.93932055  0.10780191    -0.34600
C627        C  0.52100498  0.95008004  0.12999174     0.01600
C628        C  0.51763918  0.93233536  0.14802207     0.07600
C629        C  0.51295753  0.91083295  0.13532836    -0.05500
H630        H  0.52480164  0.96937061  0.13281576     0.08300
H631        H  0.50880662  0.89302133  0.14315515     0.09500
Cu632      Cu  0.52081985  0.95521104  0.07292754     0.44200
Cu633      Cu  0.50608645  0.89180244  0.08250887     0.42000
Cu634      Cu  0.50354674  0.91554117  0.02062735     0.43900
N635        N  0.52015031  0.96654540  0.03623596    -0.34100
N636        N  0.51294373  0.95260964  0.01759097    -0.28400
C637        C  0.51413531  0.96588408  0.99669003    -0.04500
C638        C  0.52266517  0.98910940  0.00241653     0.07700
C639        C  0.52652457  0.98884635  0.02754509     0.01500
H640        H  0.50993713  0.95885345  0.97852990     0.09200
H641        H  0.53352948  0.00376242  0.03871045     0.08200
N642        N  0.49698172  0.87876569  0.02927970    -0.35600
N643        N  0.49776954  0.87047272  0.05212609    -0.27800
C644        C  0.49353434  0.84618437  0.05211192    -0.03000
C645        C  0.49019320  0.83852692  0.02808099     0.05600
C646        C  0.49239110  0.85974536  0.01403740     0.03700
H647        H  0.49348105  0.83478880  0.06843725     0.08800
H648        H  0.49154420  0.86111487  0.99420869     0.07600
N649        N  0.41212255  0.63828726  0.99150169    -0.26800
N650        N  0.42118372  0.61652837  0.98555231    -0.34600
C651        C  0.40343604  0.59946119  0.98827505     0.01600
C652        C  0.38224035  0.61103203  0.99637101     0.07600
C653        C  0.38841548  0.63561358  0.99808092    -0.05500
H654        H  0.40615999  0.57993634  0.98585160     0.08300
H655        H  0.37693686  0.65028136  0.00505588     0.09500
Cu656      Cu  0.45817587  0.60991904  0.97871633     0.44200
Cu657      Cu  0.43253341  0.67044994  0.99397889     0.42000
Cu658      Cu  0.49741698  0.66255391  0.98859542     0.43900
N659        N  0.49600169  0.60749038  0.98335506    -0.34100
N660        N  0.51004959  0.62673652  0.98823741    -0.28400
C661        C  0.53251099  0.61892511  0.99507426    -0.04500
C662        C  0.53274396  0.59362182  0.99391762     0.07700
C663        C  0.50933775  0.58691166  0.98651571     0.01500
H664        H  0.54714091  0.63073961  0.00165977     0.09200
H665        H  0.50195452  0.56845670  0.98558901     0.08200
N666        N  0.48109891  0.69658123  0.99284455    -0.35600
N667        N  0.45718529  0.69953643  0.99604818    -0.27800
C668        C  0.45267148  0.72332939  0.00103389    -0.03000
C669        C  0.47486748  0.73605314  0.00072473     0.05600
C670        C  0.49241558  0.71840045  0.99520397     0.03700
H671        H  0.43466258  0.73064326  0.00533626     0.08800
H672        H  0.51209505  0.72104162  0.99360622     0.07600
N673        N  0.44965661  0.94271356  0.35086901    -0.26800
N674        N  0.45752917  0.94888211  0.37297655    -0.34600
C675        C  0.43830790  0.94919666  0.38863662     0.01600
C676        C  0.41723142  0.94278978  0.37571456     0.07600
C677        C  0.42521648  0.93878641  0.35180636    -0.05500
H678        H  0.43959280  0.95379534  0.40794046     0.08300
H679        H  0.41410125  0.93325649  0.33626845     0.09500
Cu680      Cu  0.49435913  0.95568549  0.37994276     0.44200
Cu681      Cu  0.47302694  0.94056402  0.32075784     0.42000
Cu682      Cu  0.53894491  0.95266408  0.32881530     0.43900
N683        N  0.53199280  0.96035004  0.38366066    -0.34100
N684        N  0.54841179  0.95938911  0.36564433    -0.28400
C685        C  0.57089361  0.96421364  0.37516410    -0.04500
C686        C  0.56824200  0.96811774  0.40022378     0.07700
C687        C  0.54344685  0.96568746  0.40486778     0.01500
H688        H  0.58772700  0.96546587  0.36456168     0.09200
H689        H  0.53423337  0.96830162  0.42233361     0.08200
N690        N  0.52222145  0.94599200  0.29464820    -0.35600
N691        N  0.49836528  0.94156706  0.29220222    -0.27800
C692        C  0.49301073  0.93871288  0.26825073    -0.03000
C693        C  0.51438368  0.94151912  0.25470682     0.05600
C694        C  0.53263360  0.94601270  0.27206900     0.03700
H695        H  0.47475250  0.93504400  0.26117268     0.08800
H696        H  0.55191020  0.94952448  0.26850314     0.07600
N697        N  0.16867294  0.64052033  0.29526801    -0.26800
N698        N  0.17013108  0.61721402  0.30208618    -0.34600
C699        C  0.17534230  0.60339284  0.28220298     0.01600
C700        C  0.17745133  0.61872707  0.26195756     0.07600
C701        C  0.17310551  0.64211153  0.27094890    -0.05500
H702        H  0.17775657  0.58367617  0.28251463     0.08300
H703        H  0.17320986  0.65906528  0.26056221     0.09500
Cu704      Cu  0.16565866  0.60511685  0.33825168     0.44200
Cu705      Cu  0.16181489  0.66955822  0.31926212     0.42000
Cu706      Cu  0.15315841  0.65283337  0.38276285     0.43900
N707        N  0.15911898  0.59822665  0.37545089    -0.34100
N708        N  0.15331450  0.61571067  0.39131986    -0.28400
C709        C  0.14881274  0.60550355  0.41341215    -0.04500
C710        C  0.15243756  0.58049069  0.41150593     0.07700
C711        C  0.15893580  0.57642133  0.38723259     0.01500
H712        H  0.14355384  0.61560982  0.42974911     0.09200
H713        H  0.16262253  0.55887588  0.37862759     0.08200
N714        N  0.15777421  0.68880920  0.37106120    -0.35600
N715        N  0.16018046  0.69512495  0.34770981    -0.27800
C716        C  0.16487510  0.71938055  0.34643154    -0.03000
C717        C  0.16598808  0.72876641  0.37017405     0.05600
C718        C  0.16125012  0.70875301  0.38524461     0.03700
H719        H  0.16851273  0.72918587  0.32949715     0.08800
H720        H  0.16181693  0.70837396  0.40512884     0.07600
N721        N  0.70545805  0.93761466  0.13379861    -0.26800
N722        N  0.70329292  0.96067029  0.12645620    -0.34600
C723        C  0.70774833  0.97568313  0.14557158     0.01600
C724        C  0.71305614  0.96144422  0.16598159     0.07600
C725        C  0.71146581  0.93737422  0.15781781    -0.05500
H726        H  0.70664520  0.99550353  0.14479538     0.08300
H727        H  0.71424436  0.92089124  0.16859195     0.09500
Cu728      Cu  0.69335609  0.97085603  0.09113350     0.44200
Cu729      Cu  0.69920472  0.90759633  0.11096708     0.42000
Cu730      Cu  0.67567591  0.92165372  0.05010021     0.43900
N731        N  0.68037428  0.97651536  0.05578312    -0.34100
N732        N  0.67261876  0.95861352  0.04127034    -0.28400
C733        C  0.66387242  0.96843557  0.02030360    -0.04500
C734        C  0.66674549  0.99360802  0.02160177     0.07700
C735        C  0.67728570  0.99815508  0.04424242     0.01500
H736        H  0.65640617  0.95799022  0.00508193     0.09200
H737        H  0.68181217  0.01590072  0.05202025     0.08200
N738        N  0.68341085  0.88630626  0.06215020    -0.35600
N739        N  0.69189773  0.88112060  0.08435971    -0.27800
C740        C  0.69547901  0.85671360  0.08608658    -0.03000
C741        C  0.68905641  0.84605897  0.06386367     0.05600
C742        C  0.68149879  0.86538002  0.04913255     0.03700
H743        H  0.70267585  0.84745856  0.10216356     0.08800
H744        H  0.67521612  0.86432397  0.03029064     0.07600
N745        N  0.95692055  0.91940819  0.42482334    -0.26800
N746        N  0.96229262  0.94137299  0.43371591    -0.34600
C747        C  0.94209253  0.95562956  0.43260471     0.01600
C748        C  0.92313240  0.94207196  0.42225858     0.07600
C749        C  0.93323377  0.91918651  0.41768212    -0.05500
H750        H  0.94162674  0.97478924  0.43780718     0.08300
H751        H  0.92438268  0.90387197  0.40859090     0.09500
Cu752      Cu  0.99771999  0.95262753  0.44225330     0.44200
Cu753      Cu  0.98222712  0.89118279  0.42024511     0.42000
Cu754      Cu  0.04511725  0.90689787  0.43142943     0.43900
N755        N  0.03482620  0.96093804  0.43922334    -0.34100
N756        N  0.05193722  0.94428147  0.43458113    -0.28400
C757        C  0.07314830  0.95580158  0.42908632    -0.04500
C758        C  0.06925946  0.98079653  0.43063666     0.07700
C759        C  0.04480554  0.98348693  0.43704546     0.01500
H760        H  0.08976364  0.94668330  0.42292909     0.09200
H761        H  0.03454755  0.00050238  0.43808669     0.08200
N762        N  0.03390769  0.87157479  0.42248141    -0.35600
N763        N  0.01078614  0.86597178  0.41742879    -0.27800
C764        C  0.00965587  0.84240642  0.41007167    -0.03000
C765        C  0.03323008  0.83254837  0.41063468     0.05600
C766        C  0.04808156  0.85166004  0.41876194     0.03700
H767        H  0.99297375  0.83331986  0.40410741     0.08800
H768        H  0.06781108  0.85129008  0.42145575     0.07600
N769        N  0.92284851  0.58415100  0.08084741    -0.26800
N770        N  0.92840869  0.57616166  0.05854036    -0.34600
C771        C  0.90806906  0.57724232  0.04440263     0.01600
C772        C  0.88886489  0.58664837  0.05836321     0.07600
C773        C  0.89902733  0.59072889  0.08135102    -0.05500
H774        H  0.90759794  0.57244643  0.02507156     0.08300
H775        H  0.89008224  0.59908806  0.09704469     0.09500
Cu776      Cu  0.96411222  0.56850089  0.04678266     0.44200
Cu777      Cu  0.94762798  0.58866128  0.10953149     0.42000
Cu778      Cu  0.01040170  0.58513635  0.09195903     0.43900
N779        N  0.00147292  0.57152146  0.03855800    -0.34100
N780        N  0.01792324  0.57894396  0.05491472    -0.28400
C781        C  0.03936995  0.58336826  0.04335776    -0.04500
C782        C  0.03653125  0.57803398  0.01867520     0.07700
C783        C  0.01227145  0.57055876  0.01620686     0.01500
H784        H  0.05560876  0.59092444  0.05213091     0.09200
H785        H  0.00267246  0.56669026  0.99918778     0.08200
N786        N  0.99942100  0.59225616  0.12794204    -0.35600
N787        N  0.97606014  0.59408877  0.13442086    -0.27800
C788        C  0.97476819  0.60014819  0.15840462    -0.03000
C789        C  0.99855372  0.60206295  0.16763844     0.05600
C790        C  0.01364694  0.59677778  0.14769264     0.03700
H791        H  0.95776283  0.60343544  0.16823452     0.08800
H792        H  0.03356817  0.59640582  0.14747658     0.07600
N793        N  0.76029866  0.64655081  0.02684466    -0.26800
N794        N  0.75117808  0.62411564  0.02492566    -0.34600
C795        C  0.76950095  0.60773354  0.02768330     0.01600
C796        C  0.79119467  0.62055100  0.03129110     0.07600
C797        C  0.78472568  0.64509148  0.03062425    -0.05500
H798        H  0.76710580  0.58801176  0.02773832     0.08300
H799        H  0.79669816  0.66067881  0.03376320     0.09500
Cu800      Cu  0.71400580  0.61699228  0.02060614     0.44200
Cu801      Cu  0.73863216  0.67782439  0.02729662     0.42000
Cu802      Cu  0.67226217  0.66825619  0.03009086     0.43900
N803        N  0.67605427  0.61367418  0.02052671    -0.34100
N804        N  0.66070919  0.63187979  0.02551454    -0.28400
C805        C  0.63760422  0.62279725  0.02651725    -0.04500
C806        C  0.63858578  0.59791356  0.02131563     0.07700
C807        C  0.66317102  0.59278510  0.01759058     0.01500
H808        H  0.62131564  0.63351136  0.03063073     0.09200
H809        H  0.67124900  0.57495176  0.01409033     0.08200
N810        N  0.68920368  0.70269102  0.03259291    -0.35600
N811        N  0.71332665  0.70596138  0.03148500    -0.27800
C812        C  0.71847727  0.72989562  0.03478832    -0.03000
C813        C  0.69659018  0.74249151  0.03807071     0.05600
C814        C  0.67838530  0.72461724  0.03648109     0.03700
H815        H  0.73689715  0.73744418  0.03558131     0.08800
H816        H  0.65875357  0.72727916  0.03843506     0.07600
N817        N  0.04229108  0.64927999  0.30013268    -0.26800
N818        N  0.04160667  0.62583082  0.30641053    -0.34600
C819        C  0.03447965  0.61251117  0.28678412     0.01600
C820        C  0.03022591  0.62832758  0.26717869     0.07600
C821        C  0.03535451  0.65151779  0.27646516    -0.05500
H822        H  0.03253732  0.59273402  0.28680119     0.08300
H823        H  0.03381618  0.66883881  0.26683563     0.09500
Cu824      Cu  0.04938428  0.61338326  0.34184384     0.44200
Cu825      Cu  0.05218195  0.67718266  0.32431964     0.42000
Cu826      Cu  0.07032450  0.65841346  0.38615790     0.43900
N827        N  0.05691727  0.60539107  0.37859108    -0.34100
N828        N  0.06587622  0.62146917  0.39449801    -0.28400
C829        C  0.06736919  0.61082292  0.41684753    -0.04500
C830        C  0.05857241  0.58706342  0.41492610     0.07700
C831        C  0.05198450  0.58430179  0.39051833     0.01500
H832        H  0.07244470  0.62032047  0.43359985     0.09200
H833        H  0.04321898  0.56844735  0.38225318     0.08200
N834        N  0.06600704  0.69471009  0.37525152    -0.35600
N835        N  0.05959444  0.70159361  0.35279410    -0.27800
C836        C  0.05567110  0.72601024  0.35269738    -0.03000
C837        C  0.05960225  0.73481918  0.37622733     0.05600
C838        C  0.06610141  0.71450789  0.39004038     0.03700
H839        H  0.04878444  0.73628176  0.33711196     0.08800
H840        H  0.06921183  0.71393451  0.40967828     0.07600
N841        N  0.79706978  0.98196586  0.36034434    -0.26800
N842        N  0.78700552  0.97917888  0.38229603    -0.34600
C843        C  0.80462487  0.97317533  0.39858878     0.01600
C844        C  0.82690021  0.97197331  0.38625204     0.07600
C845        C  0.82139589  0.97764967  0.36201806    -0.05500
H846        H  0.80142121  0.96981981  0.41793366     0.08300
H847        H  0.83405220  0.97816255  0.34665399     0.09500
Cu848      Cu  0.74975239  0.98332170  0.38877890     0.44200
Cu849      Cu  0.77682462  0.99088382  0.32927258     0.42000
Cu850      Cu  0.71274043  0.00830034  0.33928805     0.43900
N851        N  0.71260211  0.99088069  0.39179309    -0.34100
N852        N  0.69935030  0.00160453  0.37442831    -0.28400
C853        C  0.67619116  0.00465827  0.38275182    -0.04500
C854        C  0.67488896  0.99497248  0.40623452     0.07700
C855        C  0.69819443  0.98634949  0.41136157     0.01500
H856        H  0.66123374  0.01249474  0.37216714     0.09200
H857        H  0.70434941  0.97769760  0.42822068     0.08200
N858        N  0.72863180  0.00412095  0.30481150    -0.35600
N859        N  0.75179498  0.99748193  0.30123666    -0.27800
C860        C  0.75511295  0.99240957  0.27726376    -0.03000
C861        C  0.73297591  0.99581666  0.26518164     0.05600
C862        C  0.71662184  0.00339484  0.28317963     0.03700
H863        H  0.77184387  0.98485246  0.26956486     0.08800
H864        H  0.69703820  0.00633235  0.28104858     0.07600
N865        N  0.98665555  0.46827270  0.14459395    -0.26800
N866        N  0.00889285  0.46692124  0.13478836    -0.34600
C867        C  0.02547710  0.46274686  0.15270896     0.01600
C868        C  0.01304154  0.46131625  0.17488639     0.07600
C869        C  0.98846516  0.46490658  0.16904564    -0.05500
H870        H  0.04506396  0.46058127  0.14977261     0.08300
H871        H  0.97302817  0.46494396  0.18164106     0.09500
Cu872      Cu  0.01532858  0.47119485  0.09750963     0.44200
Cu873      Cu  0.95500474  0.47444237  0.12395090     0.42000
Cu874      Cu  0.96400267  0.49268312  0.06005736     0.43900
N875        N  0.01827203  0.48054048  0.06071787    -0.34100
N876        N  0.00026896  0.49009490  0.04737555    -0.28400
C877        C  0.00912820  0.49549878  0.02480313    -0.04500
C878        C  0.03361062  0.48842338  0.02394613     0.07700
C879        C  0.03873720  0.47900824  0.04692559     0.01500
H880        H  0.99835505  0.50319041  0.00991860     0.09200
H881        H  0.05623920  0.47191779  0.05332527     0.08200
N882        N  0.92941233  0.48776551  0.07629856    -0.35600
N883        N  0.92630202  0.48064179  0.09936583    -0.27800
C884        C  0.90212918  0.47703733  0.10354894    -0.03000
C885        C  0.88920677  0.48215490  0.08216033     0.05600
C886        C  0.90719634  0.48899673  0.06529017     0.03700
H887        H  0.89459003  0.47024543  0.12068239     0.08800
H888        H  0.90441977  0.49386430  0.04620252     0.07600
N889        N  0.99615383  0.19766341  0.39497150    -0.26800
N890        N  0.01933517  0.19224890  0.40013922    -0.34600
C891        C  0.03246892  0.21320614  0.40136777     0.01600
C892        C  0.01686654  0.23274993  0.39666443     0.07600
C893        C  0.99396680  0.22219476  0.39274634    -0.05500
H894        H  0.05217457  0.21407614  0.40416107     0.08300
H895        H  0.97716559  0.23158419  0.38765242     0.09500
Cu896      Cu  0.03272723  0.15650681  0.40263252     0.44200
Cu897      Cu  0.96899303  0.17137857  0.38881177     0.42000
Cu898      Cu  0.98963952  0.10807122  0.38682819     0.43900
N899        N  0.04230565  0.11950451  0.40105011    -0.34100
N900        N  0.02687333  0.10200219  0.39408843    -0.28400
C901        C  0.03904353  0.08045770  0.39340796    -0.04500
C902        C  0.06311045  0.08453885  0.40070964     0.07700
C903        C  0.06453350  0.10944405  0.40552697     0.01500
H904        H  0.03084967  0.06302377  0.38842340     0.09200
H905        H  0.08067746  0.11960452  0.41129365     0.08200
N906        N  0.95312063  0.11864985  0.38140636    -0.35600
N907        N  0.94568116  0.14177151  0.38203317    -0.27800
C908        C  0.92133783  0.14254205  0.37739744    -0.03000
C909        C  0.91295734  0.11877577  0.37372160     0.05600
C910        C  0.93363494  0.10410257  0.37646599     0.03700
H911        H  0.91051277  0.15919002  0.37672591     0.08800
H912        H  0.93452206  0.08434427  0.37463070     0.07600
N913        N  0.65174502  0.20931711  0.08733964    -0.26800
N914        N  0.64928960  0.20442111  0.06367920    -0.34600
C915        C  0.65262495  0.22528080  0.05070635     0.01600
C916        C  0.65758143  0.24427944  0.06702633     0.07600
C917        C  0.65698229  0.23330093  0.09007548    -0.05500
H918        H  0.65120003  0.22655985  0.03091187     0.08300
H919        H  0.66006318  0.24212270  0.10762273     0.09500
Cu920      Cu  0.64186866  0.16918122  0.05093163     0.44200
Cu921      Cu  0.64691975  0.18312290  0.11476149     0.42000
Cu922      Cu  0.62304285  0.12325200  0.09633513     0.43900
N923        N  0.63548278  0.13236002  0.04295223    -0.34100
N924        N  0.62714996  0.11590231  0.05887163    -0.28400
C925        C  0.62584534  0.09385477  0.04759773    -0.04500
C926        C  0.63420812  0.09661364  0.02368304     0.07700
C927        C  0.64023328  0.12115388  0.02144490     0.01500
H928        H  0.62081262  0.07683185  0.05660426     0.09200
H929        H  0.64803081  0.13014272  0.00546486     0.08200
N930        N  0.63131770  0.13277821  0.13258990    -0.35600
N931        N  0.64108589  0.15410752  0.13895792    -0.27800
C932        C  0.64897626  0.15271186  0.16237889    -0.03000
C933        C  0.64403946  0.12938103  0.17136175     0.05600
C934        C  0.63246199  0.11740797  0.15197520     0.03700
H935        H  0.65932923  0.16702569  0.17152404     0.08800
H936        H  0.62692713  0.09833928  0.15137750     0.07600
N937        N  0.69981440  0.38307228  0.05193366    -0.26800
N938        N  0.67627435  0.38865272  0.04935127    -0.34600
C939        C  0.66303531  0.36776641  0.04816097     0.01600
C940        C  0.67900048  0.34800257  0.05010478     0.07600
C941        C  0.70220069  0.35843869  0.05236802    -0.05500
H942        H  0.64316408  0.36702269  0.04706488     0.08300
H943        H  0.71934348  0.34884913  0.05552220     0.09500
Cu944      Cu  0.66325362  0.42451882  0.05024200     0.44200
Cu945      Cu  0.72684123  0.40963725  0.05763126     0.42000
Cu946      Cu  0.70663456  0.47337525  0.06563807     0.43900
N947        N  0.65365054  0.46133926  0.05321720    -0.34100
N948        N  0.66903330  0.47913425  0.05952425    -0.28400
C949        C  0.65701126  0.50077823  0.05824625    -0.04500
C950        C  0.63300503  0.49630921  0.05083758     0.07700
C951        C  0.63167712  0.47119539  0.04751748     0.01500
H952        H  0.66561462  0.51856265  0.06062302     0.09200
H953        H  0.61624146  0.46095494  0.04016991     0.08200
N954        N  0.74343863  0.46209565  0.06737583    -0.35600
N955        N  0.75048921  0.43901728  0.06443088    -0.27800
C956        C  0.77518280  0.43785846  0.06596834    -0.03000
C957        C  0.78435431  0.46129030  0.06987027     0.05600
C958        C  0.76362221  0.47620209  0.07074218     0.03700
H959        H  0.78574646  0.42111276  0.06422193     0.08800
H960        H  0.76326687  0.49591781  0.07312522     0.07600
N961        N  0.77411046  0.08550479  0.33625959    -0.26800
N962        N  0.77051465  0.08642777  0.36029435    -0.34600
C963        C  0.79209641  0.09128496  0.37144784     0.01600
C964        C  0.81038760  0.09323654  0.35368641     0.07600
C965        C  0.79817080  0.08938689  0.33156314    -0.05500
H966        H  0.79424181  0.09347065  0.39109958     0.08300
H967        H  0.80613879  0.08937819  0.31332806     0.09500
Cu968      Cu  0.73653986  0.08048012  0.37706762     0.44200
Cu969      Cu  0.74572357  0.08081757  0.31088591     0.42000
Cu970      Cu  0.68537016  0.06830832  0.33657869     0.43900
N971        N  0.70100895  0.07301097  0.38940825    -0.34100
N972        N  0.68251461  0.06748832  0.37458005    -0.28400
C973        C  0.66159136  0.06620465  0.38780106    -0.04500
C974        C  0.66712590  0.07124946  0.41208302     0.07700
C975        C  0.69222024  0.07570978  0.41239062     0.01500
H976        H  0.64336297  0.06443962  0.37990407     0.09200
H977        H  0.70293480  0.08239442  0.42780810     0.08200
N978        N  0.69131616  0.07674905  0.29985789    -0.35600
N979        N  0.71334056  0.08096255  0.29030584    -0.27800
C980        C  0.71059732  0.08814309  0.26675144    -0.03000
C981        C  0.68568380  0.08865739  0.26135667     0.05600
C982        C  0.67400586  0.08137777  0.28275795     0.03700
H983        H  0.72550542  0.09398643  0.25489470     0.08800
H984        H  0.65436537  0.08060844  0.28600439     0.07600
N985        N  0.06049365  0.36793008  0.36058833    -0.26800
N986        N  0.05471516  0.37381741  0.38344857    -0.34600
C987        C  0.04771255  0.35338151  0.39554230     0.01600
C988        C  0.04930332  0.33353086  0.37960435     0.07600
C989        C  0.05783157  0.34356122  0.35770763    -0.05500
H990        H  0.04079795  0.35322068  0.41421251     0.08300
H991        H  0.06084156  0.33404850  0.34049388     0.09500
Cu992      Cu  0.05514933  0.40962702  0.39647951     0.44200
Cu993      Cu  0.06647159  0.39349930  0.33280701     0.42000
Cu994      Cu  0.05651219  0.45650814  0.34862941     0.43900
N995        N  0.05675238  0.44705757  0.40342933    -0.34100
N996        N  0.05670137  0.46394949  0.38591126    -0.28400
C997        C  0.05579388  0.48629293  0.39628382    -0.04500
C998        C  0.05575054  0.48334639  0.42145590     0.07700
C999        C  0.05616248  0.45830176  0.42547087     0.01500
H1000       H  0.05438620  0.50339172  0.38620834     0.09200
H1001       H  0.05470904  0.44893502  0.44298559     0.08200
N1002       N  0.05734933  0.44420438  0.31267214    -0.35600
N1003       N  0.06197273  0.42112818  0.30679686    -0.27800
C1004       C  0.05922453  0.41839491  0.28237182    -0.03000
C1005       C  0.05217362  0.44076263  0.27239098     0.05600
C1006       C  0.05135683  0.45673412  0.29219401     0.03700
H1007       H  0.06070299  0.40102578  0.27282157     0.08800
H1008       H  0.04525512  0.47564204  0.29198458     0.07600
N1009       N  0.18420231  0.49400795  0.14363129    -0.26800
N1010       N  0.16184777  0.49914480  0.13542503    -0.34600
C1011       C  0.14561651  0.49638998  0.15397225     0.01600
C1012       C  0.15839173  0.48929869  0.17485191     0.07600
C1013       C  0.18279162  0.48808898  0.16761469    -0.05500
H1014       H  0.12587680  0.49827374  0.15211175     0.08300
H1015       H  0.19817665  0.48177562  0.17858247     0.09500
Cu1016     Cu  0.15393868  0.50655155  0.09871123     0.44200
Cu1017     Cu  0.21518981  0.49125248  0.12134609     0.42000
Cu1018     Cu  0.20502482  0.49861507  0.05640330     0.43900
N1019       N  0.15051097  0.50858632  0.06064224    -0.34100
N1020       N  0.16908426  0.50492732  0.04531680    -0.28400
C1021       C  0.16036003  0.50373789  0.02219974    -0.04500
C1022       C  0.13521190  0.50732018  0.02294542     0.07700
C1023       C  0.12951354  0.51017044  0.04756885     0.01500
H1024       H  0.17132755  0.49920535  0.00620117     0.09200
H1025       H  0.11126956  0.51128046  0.05553487     0.08200
N1026       N  0.23902127  0.48995985  0.07133645    -0.35600
N1027       N  0.24266035  0.48659063  0.09512433    -0.27800
C1028       C  0.26620358  0.47979602  0.09874383    -0.03000
C1029       C  0.27811695  0.47910940  0.07614643     0.05600
C1030       C  0.26021134  0.48578526  0.05922911     0.03700
H1031       H  0.27398285  0.47540859  0.11653140     0.08800
H1032       H  0.26238366  0.48754293  0.03951619     0.07600
N1033       N  0.52532645  0.21335946  0.06498965    -0.26800
N1034       N  0.52134656  0.20556485  0.04233995    -0.34600
C1035       C  0.51505224  0.22484992  0.02816003     0.01600
C1036       C  0.51503346  0.24577875  0.04268542     0.07600
C1037       C  0.52153499  0.23771853  0.06595053    -0.05500
H1038       H  0.51118903  0.22377746  0.00867409     0.08300
H1039       H  0.52354333  0.24877428  0.08235274     0.09500
Cu1040     Cu  0.52598125  0.16909917  0.03223431     0.44200
Cu1041     Cu  0.53738223  0.19065296  0.09293574     0.42000
Cu1042     Cu  0.56158929  0.13116594  0.07476456     0.43900
N1043       N  0.53578950  0.13283004  0.02569926    -0.34100
N1044       N  0.55048171  0.11975996  0.04005727    -0.28400
C1045       C  0.55461004  0.09779513  0.02944516    -0.04500
C1046       C  0.54134194  0.09686874  0.00776402     0.07700
C1047       C  0.52964539  0.11930505  0.00595967     0.01500
H1048       H  0.56593577  0.08339445  0.03722400     0.09200
H1049       H  0.51814845  0.12565345  0.99098823     0.08200
N1050       N  0.56111814  0.14378741  0.11079465    -0.35600
N1051       N  0.55161196  0.16518336  0.11724817    -0.27800
C1052       C  0.55064699  0.16651907  0.14187227    -0.03000
C1053       C  0.55991525  0.14493899  0.15151740     0.05600
C1054       C  0.56648285  0.13093508  0.13127371     0.03700
H1055       H  0.54229171  0.18144883  0.15198800     0.08800
H1056       H  0.57321852  0.11224734  0.13138319     0.07600
N1057       N  0.22796376  0.20115624  0.38335767    -0.26800
N1058       N  0.20458507  0.19443999  0.38432529    -0.34600
C1059       C  0.19032258  0.21461604  0.38331070     0.01600
C1060       C  0.20551157  0.23498233  0.38148417     0.07600
C1061       C  0.22924625  0.22574837  0.38166227    -0.05500
H1062       H  0.17041440  0.21439887  0.38273500     0.08300
H1063       H  0.24618320  0.23607334  0.37978047     0.09500
Cu1064     Cu  0.19345413  0.15802730  0.38429670     0.44200
Cu1065     Cu  0.25691492  0.17651806  0.38164301     0.42000
Cu1066     Cu  0.24123368  0.11202581  0.37487762     0.43900
N1067       N  0.18674357  0.12060989  0.38213234    -0.34100
N1068       N  0.20388534  0.10377886  0.37827076    -0.28400
C1069       C  0.19333717  0.08137336  0.37926885    -0.04500
C1070       C  0.16844089  0.08436962  0.38380933     0.07700
C1071       C  0.16499440  0.10939366  0.38583411     0.01500
H1072       H  0.20331359  0.06417968  0.37837349     0.09200
H1073       H  0.14812103  0.11873222  0.39085341     0.08200
N1074       N  0.27716333  0.12551219  0.37395680    -0.35600
N1075       N  0.28274248  0.14899504  0.37679052    -0.27800
C1076       C  0.30729160  0.15181519  0.37512352    -0.03000
C1077       C  0.31775552  0.12903321  0.37102545     0.05600
C1078       C  0.29810797  0.11276596  0.37037819     0.03700
H1079       H  0.31679021  0.16925644  0.37631748     0.08800
H1080       H  0.29897013  0.09314064  0.36745204     0.07600
N1081       N  0.45853003  0.11517083  0.33501885    -0.26800
N1082       N  0.46254689  0.10767051  0.35777556    -0.34600
C1083       C  0.44082249  0.10583793  0.36956824     0.01600
C1084       C  0.42222239  0.11276604  0.35348920     0.07600
C1085       C  0.43423077  0.11853258  0.33174862    -0.05500
H1086       H  0.43880493  0.10041609  0.38859838     0.08300
H1087       H  0.42599308  0.12535465  0.31496356     0.09500
Cu1088     Cu  0.49769299  0.10298729  0.37213081     0.44200
Cu1089     Cu  0.48634823  0.12073495  0.30966485     0.42000
Cu1090     Cu  0.54914676  0.11888211  0.33164528     0.43900
N1091       N  0.53417486  0.10524420  0.38348166    -0.34100
N1092       N  0.55258582  0.11255103  0.36925336    -0.28400
C1093       C  0.57337385  0.11338563  0.38274763    -0.04500
C1094       C  0.56777945  0.10589441  0.40640217     0.07700
C1095       C  0.54287931  0.10068728  0.40619962     0.01500
H1096       H  0.59138820  0.11811097  0.37561121     0.09200
H1097       H  0.53184351  0.09423398  0.42148437     0.08200
N1098       N  0.53981356  0.12141528  0.29460298    -0.35600
N1099       N  0.51675349  0.12213119  0.28682830    -0.27800
C1100       C  0.51653646  0.12361617  0.26217470    -0.03000
C1101       C  0.54060613  0.12380171  0.25390241     0.05600
C1102       C  0.55494196  0.12243908  0.27496669     0.03700
H1103       H  0.50004123  0.12490417  0.25109767     0.08800
H1104       H  0.57483287  0.12236099  0.27595144     0.07600
N1105       N  0.15917114  0.36839552  0.34536489    -0.26800
N1106       N  0.16296732  0.37421514  0.36864556    -0.34600
C1107       C  0.17257473  0.35474642  0.38043595     0.01600
C1108       C  0.17482527  0.33565584  0.36378133     0.07600
C1109       C  0.16620932  0.34501386  0.34170036    -0.05500
H1110       H  0.17715700  0.35440357  0.39979108     0.08300
H1111       H  0.16456890  0.33535193  0.32440803     0.09500
Cu1112     Cu  0.15312931  0.40768634  0.38361348     0.44200
Cu1113     Cu  0.14399706  0.39246850  0.32002909     0.42000
Cu1114     Cu  0.11698534  0.44808341  0.34498091     0.43900
N1115       N  0.13906464  0.44104289  0.39507769    -0.34100
N1116       N  0.12451873  0.45511461  0.38158301    -0.28400
C1117       C  0.11965631  0.47590795  0.39402236    -0.04500
C1118       C  0.13203534  0.47488637  0.41617165     0.07700
C1119       C  0.14418613  0.45264629  0.41624525     0.01500
H1120       H  0.10965636  0.49143544  0.38661542     0.09200
H1121       H  0.15661030  0.44579649  0.43023616     0.08200
N1122       N  0.12138236  0.44157428  0.30775060    -0.35600
N1123       N  0.13126509  0.42133067  0.29866842    -0.27800
C1124       C  0.13514265  0.42444471  0.27444772    -0.03000
C1125       C  0.12758568  0.44782733  0.26801514     0.05600
C1126       C  0.11888685  0.45815416  0.28957311     0.03700
H1127       H  0.14470685  0.41146919  0.26282105     0.08800
H1128       H  0.11293686  0.47691586  0.29224815     0.07600
N1129       N  0.41452373  0.43304891  0.04787912    -0.26800
N1130       N  0.42100436  0.45641129  0.04928011    -0.34600
C1131       C  0.40095252  0.46991617  0.05462794     0.01600
C1132       C  0.38087801  0.45428261  0.05677915     0.07600
C1133       C  0.39027100  0.43103182  0.05245849    -0.05500
H1134       H  0.40086528  0.48978391  0.05616598     0.08300
H1135       H  0.38012112  0.41388094  0.05227568     0.09500
Cu1136     Cu  0.45667593  0.46854062  0.04240156     0.44200
Cu1137     Cu  0.43868143  0.40530450  0.03815246     0.42000
Cu1138     Cu  0.49757420  0.42382654  0.01320328     0.43900
N1139       N  0.49259831  0.47606553  0.03139031    -0.34100
N1140       N  0.50666164  0.46043838  0.01912505    -0.28400
C1141       C  0.52837055  0.47128870  0.01408035    -0.04500
C1142       C  0.52816604  0.49456744  0.02417399     0.07700
C1143       C  0.50525658  0.49702829  0.03500183     0.01500
H1144       H  0.54359440  0.46246709  0.00471811     0.09200
H1145       H  0.49823034  0.51293190  0.04465632     0.08200
N1146       N  0.48704636  0.38735370  0.01751505    -0.35600
N1147       N  0.46568757  0.38081715  0.02721072    -0.27800
C1148       C  0.46537824  0.35636148  0.03039260    -0.03000
C1149       C  0.48759804  0.34687642  0.02235268     0.05600
C1150       C  0.50089241  0.36710058  0.01420140     0.03700
H1151       H  0.45052081  0.34635534  0.03912203     0.08800
H1152       H  0.51960805  0.36722866  0.00736313     0.07600
O1153       O  0.55431794  0.57637972  0.02751696    -0.72400
O1154       O  0.60296289  0.52798859  0.05578162    -0.73400
O1155       O  0.60469489  0.57828000  0.04067916    -0.62000
O1156       O  0.55149772  0.52675560  0.04237358    -0.70400
O1157       O  0.56217176  0.51414309  0.00500133    -0.70000
O1158       O  0.61529504  0.56567880  0.00327783    -0.61200
O1159       O  0.61251685  0.51583178  0.01795472    -0.73700
O1160       O  0.56414306  0.56374453  0.98992932    -0.72500
Cu1161     Cu  0.57804120  0.55273321  0.04296958     1.04600
Cu1162     Cu  0.58891597  0.53951745  0.00273034     1.04300
C1163       C  0.55141473  0.57729089  0.00423098     0.93800
C1164       C  0.61537068  0.51431432  0.04119230     0.92900
C1165       C  0.61841875  0.57996430  0.02167746     0.85100
C1166       C  0.54824109  0.51263486  0.02387085     0.91300
O1167       O  0.11588646  0.50917034  0.49316237    -0.72400
O1168       O  0.12694932  0.55886078  0.43943103    -0.73400
O1169       O  0.11686654  0.50765757  0.44059055    -0.62000
O1170       O  0.12627944  0.56047011  0.49123857    -0.70400
O1171       O  0.16639000  0.55230364  0.49214980    -0.70000
O1172       O  0.15676100  0.49886036  0.44249897    -0.61200
O1173       O  0.16691451  0.55007346  0.43944895    -0.73700
O1174       O  0.15600856  0.50108017  0.49384250    -0.72500
Cu1175     Cu  0.12006877  0.53429048  0.46609905     1.04600
Cu1176     Cu  0.16293983  0.52537270  0.46702620     1.04300
C1177       C  0.13420158  0.49717089  0.50172695     0.93800
C1178       C  0.14862382  0.56219123  0.43095239     0.92900
C1179       C  0.13530269  0.49475972  0.43388772     0.85100
C1180       C  0.14788037  0.56479692  0.49944497     0.91300
O1181       O  0.64836104  0.10796712  0.48778828    -0.72400
O1182       O  0.59974686  0.11929811  0.43314330    -0.73400
O1183       O  0.59915922  0.12558462  0.48581401    -0.62000
O1184       O  0.64880763  0.10199415  0.43648777    -0.70400
O1185       O  0.63437869  0.06399491  0.44036576    -0.70000
O1186       O  0.58423649  0.08771865  0.48942583    -0.61200
O1187       O  0.58512032  0.08145236  0.43794158    -0.73700
O1188       O  0.63323203  0.07040466  0.49294706    -0.72500
Cu1189     Cu  0.62442503  0.11507350  0.46066283     1.04600
Cu1190     Cu  0.60879714  0.07452014  0.46532901     1.04300
C1191       C  0.64837456  0.08733186  0.49892535     0.93800
C1192       C  0.58499110  0.10210306  0.42681740     0.92900
C1193       C  0.58403302  0.11036509  0.49546874     0.85100
C1194       C  0.64938067  0.07931461  0.43067609     0.91300
O1195       O  0.03024934  0.56241544  0.43687170    -0.72400
O1196       O  0.01257977  0.51376136  0.48950700    -0.73400
O1197       O  0.01398044  0.56648204  0.48635753    -0.62000
O1198       O  0.02860251  0.51117013  0.44028586    -0.70400
O1199       O  0.06742732  0.51079259  0.45322305    -0.70000
O1200       O  0.05253827  0.56559864  0.50010610    -0.61200
O1201       O  0.05130091  0.51385857  0.50278262    -0.73700
O1202       O  0.06889127  0.56326255  0.45031746    -0.72500
Cu1203     Cu  0.01996587  0.53852846  0.46293867     1.04600
Cu1204     Cu  0.06143256  0.53840353  0.47707876     1.04300
C1205       C  0.05235701  0.57021703  0.43507952     0.93800
C1206       C  0.02925959  0.50573343  0.50401022     0.92900
C1207       C  0.03089314  0.57470429  0.50045839     0.85100
C1208       C  0.05037371  0.50250127  0.43934584     0.91300
O1209       O  0.63438562  0.02292423  0.47543962    -0.72400
O1210       O  0.58874981  0.99963845  0.42200040    -0.73400
O1211       O  0.58316423  0.01022099  0.47269161    -0.62000
O1212       O  0.63925908  0.01235290  0.42436666    -0.70400
O1213       O  0.64961143  0.97436888  0.43514425    -0.70000
O1214       O  0.59227673  0.97147695  0.48178818    -0.61200
O1215       O  0.59873952  0.96102670  0.43074528    -0.73700
O1216       O  0.64257394  0.98430816  0.48564405    -0.72500
Cu1217     Cu  0.61109462  0.01266095  0.44830897     1.04600
Cu1218     Cu  0.62113002  0.97142309  0.45857029     1.04300
C1219       C  0.64548066  0.00730807  0.48902765     0.93800
C1220       C  0.58653044  0.97662840  0.41809416     0.92900
C1221       C  0.57879491  0.99047156  0.48465307     0.85100
C1222       C  0.65348058  0.99380563  0.42253136     0.91300
O1223       O  0.56852190  0.57747838  0.94036349    -0.72400
O1224       O  0.61621808  0.52175814  0.92811536    -0.73400
O1225       O  0.61804632  0.57335021  0.92411143    -0.62000
O1226       O  0.56681444  0.52488245  0.94521766    -0.70400
O1227       O  0.55296600  0.52262923  0.90680745    -0.70000
O1228       O  0.60437929  0.57172761  0.88561586    -0.61200
O1229       O  0.60229500  0.51883015  0.88981073    -0.73700
O1230       O  0.55464003  0.57408352  0.90210866    -0.72500
Cu1231     Cu  0.59281454  0.54947209  0.93581229     1.04600
Cu1232     Cu  0.57817058  0.54671603  0.89469764     1.04300
C1233       C  0.55403911  0.58441041  0.92315295     0.93800
C1234       C  0.61662343  0.51151001  0.90696742     0.92900
C1235       C  0.61924898  0.58028710  0.90174170     0.85100
C1236       C  0.55189474  0.51609935  0.92935904     0.91300
O1237       O  0.14108285  0.00124738  0.39032449    -0.72400
O1238       O  0.08775279  0.05223453  0.38459847    -0.73400
O1239       O  0.14000009  0.05195351  0.37586871    -0.62000
O1240       O  0.09022882  0.00201155  0.39892638    -0.70400
O1241       O  0.09666743  0.01396188  0.43743261    -0.70000
O1242       O  0.14635188  0.06332608  0.41461290    -0.61200
O1243       O  0.09503881  0.06441551  0.42290187    -0.73700
O1244       O  0.14829863  0.01300878  0.42876329    -0.72500
Cu1245     Cu  0.11457343  0.02657637  0.38601301     1.04600
Cu1246     Cu  0.12183016  0.03908767  0.42726246     1.04300
C1247       C  0.15255026  0.99867480  0.41066042     0.93800
C1248       C  0.08292295  0.06624535  0.40282808     0.92900
C1249       C  0.15090616  0.06550736  0.39170498     0.85100
C1250       C  0.08600562  0.99996067  0.42193690     0.91300
O1251       O  0.09044492  0.06785911  0.50099022    -0.72400
O1252       O  0.13698686  0.01516773  0.47969824    -0.73400
O1253       O  0.08493819  0.01858471  0.48603783    -0.62000
O1254       O  0.14153588  0.06486772  0.49519648    -0.70400
O1255       O  0.14520495  0.05254150  0.53403120    -0.70000
O1256       O  0.08954714  0.00490118  0.52426551    -0.61200
O1257       O  0.14099661  0.00262983  0.51839559    -0.73700
O1258       O  0.09276227  0.05455580  0.53959694    -0.72500
Cu1259     Cu  0.11343189  0.04196309  0.48910660     1.04600
Cu1260     Cu  0.11735879  0.02822971  0.53047404     1.04300
C1261       C  0.08402275  0.06931048  0.52350156     0.93800
C1262       C  0.14615539  0.00054074  0.49557712     0.92900
C1263       C  0.07831293  0.00458308  0.50366661     0.85100
C1264       C  0.15175996  0.06647364  0.51626189     0.91300
O1265       O  0.56859614  0.06718556  0.93259066    -0.72400
O1266       O  0.55142510  0.01431312  0.98145220    -0.73400
O1267       O  0.55938064  0.01563171  0.92984347    -0.62000
O1268       O  0.56049786  0.06550745  0.98427153    -0.70400
O1269       O  0.52063384  0.07249666  0.97818459    -0.70000
O1270       O  0.52017382  0.02447373  0.92220078    -0.61200
O1271       O  0.51169135  0.02050999  0.97391428    -0.73700
O1272       O  0.52893173  0.07563236  0.92738555    -0.72500
Cu1273     Cu  0.56136075  0.04035553  0.95722159     1.04600
Cu1274     Cu  0.51892004  0.04843051  0.95025436     1.04300
C1275       C  0.55157417  0.08014962  0.92292088     0.93800
C1276       C  0.52883488  0.00893382  0.98514389     0.92900
C1277       C  0.53974305  0.01245240  0.91728253     0.85100
C1278       C  0.54075642  0.07714839  0.98944956     0.91300
O1279       O  0.10763530  0.51392701  0.94015525    -0.72400
O1280       O  0.05459220  0.51030582  0.99234692    -0.73400
O1281       O  0.10607321  0.51960167  0.99280028    -0.62000
O1282       O  0.05577395  0.50473367  0.94066666    -0.70400
O1283       O  0.06373021  0.46490859  0.94488757    -0.70000
O1284       O  0.11414576  0.47981667  0.99680001    -0.61200
O1285       O  0.06307841  0.47068601  0.99728037    -0.73700
O1286       O  0.11544536  0.47420090  0.94526469    -0.72500
Cu1287     Cu  0.08080751  0.51357498  0.96625692     1.04600
Cu1288     Cu  0.08927440  0.47100654  0.97113110     1.04300
C1289       C  0.11998113  0.49466075  0.93471276     0.93800
C1290       C  0.05095590  0.48986370  0.00331494     0.92900
C1291       C  0.11775678  0.50207727  0.00315688     0.85100
C1292       C  0.05175282  0.48240707  0.93477218     0.91300
O1293       O  0.67579398  0.02625473  0.99417699    -0.72400
O1294       O  0.65670313  0.07615584  0.94348702    -0.73400
O1295       O  0.65993552  0.07610472  0.99511005    -0.62000
O1296       O  0.67202761  0.02662983  0.94125438    -0.70400
O1297       O  0.63326470  0.01390155  0.94444647    -0.70000
O1298       O  0.62139604  0.06284904  0.99886345    -0.61200
O1299       O  0.61780656  0.06372912  0.94623863    -0.73700
O1300       O  0.63712080  0.01295545  0.99627641    -0.72500
Cu1301     Cu  0.66751134  0.05163282  0.96849688     1.04600
Cu1302     Cu  0.62601829  0.03795057  0.97159927     1.04300
C1303       C  0.65956800  0.01176312  0.00312625     0.93800
C1304       C  0.63425366  0.07764782  0.93680340     0.92900
C1305       C  0.63871964  0.07745167  0.00520251     0.85100
C1306       C  0.65436933  0.01278978  0.93410750     0.91300
O1307       O  0.06191563  0.60633930  0.99753399    -0.72400
O1308       O  0.11409539  0.62375909  0.94808283    -0.73400
O1309       O  0.06146455  0.62314880  0.94775917    -0.62000
O1310       O  0.11349148  0.60688803  0.99749244    -0.70400
O1311       O  0.11487304  0.56875524  0.98307823    -0.70000
O1312       O  0.06183830  0.58456191  0.93438880    -0.61200
O1313       O  0.11344192  0.58556846  0.93369124    -0.73700
O1314       O  0.06197340  0.56774136  0.98430603    -0.72500
Cu1315     Cu  0.08766858  0.61640240  0.97311870     1.04600
Cu1316     Cu  0.08799491  0.57526019  0.95846479     1.04300
C1317       C  0.05411099  0.58426762  0.99906935     0.93800
C1318       C  0.12187926  0.60746686  0.93307298     0.92900
C1319       C  0.05376320  0.60650888  0.93307622     0.85100
C1320       C  0.12241230  0.58522546  0.99798493     0.91300
C1321       C  0.34436074  0.12362688  0.36719081    -0.04800
C1322       C  0.35230556  0.11115798  0.34582817    -0.01900
C1323       C  0.37762883  0.10677794  0.34184971     0.03100
C1324       C  0.39538698  0.11561074  0.35875492    -0.04800
C1325       C  0.38736719  0.12801402  0.38019443    -0.01900
C1326       C  0.36199366  0.13161292  0.38456093     0.03100
C1327       C  0.33454039  0.10371707  0.32732238     0.37700
C1328       C  0.40513854  0.13809990  0.39739208     0.37700
C1329       C  0.35405422  0.14314404  0.40728574     0.36100
C1330       C  0.38526177  0.09266310  0.32053145     0.36100
N1331       N  0.34780578  0.15223142  0.42548735    -0.38700
N1332       N  0.39126090  0.08133361  0.30354867    -0.38700
N1333       N  0.41926755  0.14619429  0.41112495    -0.38100
N1334       N  0.32040364  0.09789130  0.31249189    -0.38100
C1335       C  0.18313606  0.31009148  0.36875335    -0.04800
C1336       C  0.17331671  0.29668933  0.38882419    -0.01900
C1337       C  0.18122361  0.27243620  0.39343016     0.03100
C1338       C  0.19792049  0.26086179  0.37723482    -0.04800
C1339       C  0.20722210  0.27402811  0.35680442    -0.01900
C1340       C  0.20053727  0.29876849  0.35309283     0.03100
C1341       C  0.15434828  0.30740339  0.40427236     0.37700
C1342       C  0.22285058  0.26187059  0.33889392     0.37700
C1343       C  0.21234762  0.31277063  0.33364131     0.36100
C1344       C  0.17268161  0.25968986  0.41529507     0.36100
N1345       N  0.22200228  0.32392904  0.31827100    -0.38700
N1346       N  0.16599827  0.24968618  0.43287488    -0.38700
N1347       N  0.23511829  0.25212022  0.32448502    -0.38100
N1348       N  0.13912506  0.31588486  0.41651620    -0.38100
C1349       C  0.50921146  0.27147662  0.03526754    -0.04800
C1350       C  0.52520758  0.29091776  0.04186714    -0.01900
C1351       C  0.51851626  0.31553139  0.03715254     0.03100
C1352       C  0.49598953  0.32095673  0.02523095    -0.04800
C1353       C  0.48053867  0.30142605  0.01766048    -0.01900
C1354       C  0.48707021  0.27684415  0.02269744     0.03100
C1355       C  0.54878089  0.28565295  0.05333519     0.37700
C1356       C  0.45761711  0.30657093  0.00493429     0.37700
C1357       C  0.47028287  0.25720130  0.01597891     0.36100
C1358       C  0.53421994  0.33519908  0.04605120     0.36100
N1359       N  0.45685250  0.24156946  0.01062295    -0.38700
N1360       N  0.54676119  0.35079780  0.05331338    -0.38700
N1361       N  0.43924834  0.31066325  0.99494043    -0.38100
N1362       N  0.56759585  0.28148893  0.06243842    -0.38100
C1363       C  0.54868854  0.12704914  0.22796201    -0.04800
C1364       C  0.53952180  0.11130597  0.20940939    -0.01900
C1365       C  0.54467023  0.11613252  0.18442225     0.03100
C1366       C  0.55822220  0.13730518  0.17772463    -0.04800
C1367       C  0.56785350  0.15271059  0.19629593    -0.01900
C1368       C  0.56364422  0.14726113  0.22133085     0.03100
C1369       C  0.52428530  0.09035471  0.21593579     0.37700
C1370       C  0.58128250  0.17478061  0.18956673     0.37700
C1371       C  0.57347757  0.16337101  0.24017686     0.36100
C1372       C  0.53455008  0.10012413  0.16561863     0.36100
N1373       N  0.58138567  0.17611888  0.25527042    -0.38700
N1374       N  0.52651063  0.08732532  0.15063440    -0.38700
N1375       N  0.59166889  0.19252125  0.18401849    -0.38100
N1376       N  0.51194663  0.07374995  0.22100688    -0.38100
C1377       C  0.14817682  0.48058255  0.19871907    -0.04800
C1378       C  0.15661935  0.49092535  0.22101649    -0.01900
C1379       C  0.14905302  0.48093660  0.24376872     0.03100
C1380       C  0.13309039  0.46039450  0.24438666    -0.04800
C1381       C  0.12387539  0.45067771  0.22216064    -0.01900
C1382       C  0.13133665  0.46072872  0.19940828     0.03100
C1383       C  0.17327856  0.51179600  0.22061167     0.37700
C1384       C  0.10670101  0.43022437  0.22273014     0.37700
C1385       C  0.12265092  0.44966872  0.17674297     0.36100
C1386       C  0.15870099  0.49114205  0.26647025     0.36100
N1387       N  0.11570275  0.44075203  0.15870943    -0.38700
N1388       N  0.16639178  0.49931134  0.28456238    -0.38700
N1389       N  0.09298604  0.41393863  0.22323461    -0.38100
N1390       N  0.18661937  0.52839449  0.22045491    -0.38100
C1391       C  0.30445639  0.47275437  0.07113578    -0.04800
C1392       C  0.32349036  0.48253227  0.08603093    -0.01900
C1393       C  0.34837669  0.47656293  0.08133772     0.03100
C1394       C  0.35464744  0.46099484  0.06150227    -0.04800
C1395       C  0.33572374  0.45171678  0.04622131    -0.01900
C1396       C  0.31079361  0.45717764  0.05124279     0.03100
C1397       C  0.31772813  0.49965284  0.10565997     0.37700
C1398       C  0.34188630  0.43739071  0.02455740     0.37700
C1399       C  0.29174632  0.44603020  0.03619097     0.36100
C1400       C  0.36748873  0.48635817  0.09721775     0.36100
N1401       N  0.27671007  0.43704038  0.02406859    -0.38700
N1402       N  0.38267543  0.49432154  0.10985547    -0.38700
N1403       N  0.34680096  0.42611411  0.00719652    -0.38100
N1404       N  0.31323592  0.51344091  0.12122179    -0.38100
C1405       C  0.65376783  0.11838671  0.19469379    -0.04800
C1406       C  0.65145913  0.13109394  0.21733363    -0.01900
C1407       C  0.66117877  0.12097502  0.23921648     0.03100
C1408       C  0.67404247  0.09847291  0.23864958    -0.04800
C1409       C  0.67664420  0.08584871  0.21618470    -0.01900
C1410       C  0.66656579  0.09565634  0.19432491     0.03100
C1411       C  0.63968208  0.15494893  0.21832321     0.37700
C1412       C  0.68960661  0.06255212  0.21561655     0.37700
C1413       C  0.67079649  0.08285750  0.17131243     0.36100
C1414       C  0.65857471  0.13416874  0.26227479     0.36100
N1415       N  0.67427718  0.07256571  0.15301511    -0.38700
N1416       N  0.65643596  0.14469200  0.28064395    -0.38700
N1417       N  0.69988583  0.04394825  0.21518114    -0.38100
N1418       N  0.63093025  0.17427002  0.21959442    -0.38100
C1419       C  0.67243726  0.32155288  0.05331782    -0.04800
C1420       C  0.65591217  0.31431356  0.07207930    -0.01900
C1421       C  0.65024693  0.28925410  0.07570593     0.03100
C1422       C  0.66197923  0.27089226  0.06145595    -0.04800
C1423       C  0.67836609  0.27818581  0.04248458    -0.01900
C1424       C  0.68319010  0.30339034  0.03818697     0.03100
C1425       C  0.64547737  0.33253953  0.08852258     0.37700
C1426       C  0.69114515  0.25986447  0.02793196     0.37700
C1427       C  0.69885778  0.31066442  0.01779859     0.36100
C1428       C  0.63174904  0.28255883  0.09380577     0.36100
N1429       N  0.71118825  0.31645405  0.00140659    -0.38700
N1430       N  0.61694262  0.27729307  0.10820908    -0.38700
N1431       N  0.70145686  0.24533784  0.01630151    -0.38100
N1432       N  0.63725616  0.34702237  0.10175335    -0.38100
C1433       C  0.02418826  0.25884632  0.39275311    -0.04800
C1434       C  0.01932273  0.27053635  0.37006579    -0.01900
C1435       C  0.02681823  0.29504667  0.36605609     0.03100
C1436       C  0.04073291  0.30774558  0.38412702    -0.04800
C1437       C  0.04594822  0.29577426  0.40670858    -0.01900
C1438       C  0.03692818  0.27183039  0.41129006     0.03100
C1439       C  0.00723582  0.25713000  0.35038803     0.37700
C1440       C  0.06150791  0.30751428  0.42494786     0.37700
C1441       C  0.03990343  0.26092374  0.43548689     0.36100
C1442       C  0.01934042  0.30722076  0.34349948     0.36100
N1443       N  0.04192894  0.25241080  0.45490266    -0.38700
N1444       N  0.01326771  0.31678383  0.32546770    -0.38700
N1445       N  0.07407645  0.31670842  0.43947610    -0.38100
N1446       N  0.99771582  0.24645758  0.33462168    -0.38100
C1447       C  0.88728087  0.11098781  0.36763677    -0.04800
C1448       C  0.87479794  0.12169803  0.34750212    -0.01900
C1449       C  0.84988612  0.11578644  0.34270538     0.03100
C1450       C  0.83719110  0.09865031  0.35776572    -0.04800
C1451       C  0.85018734  0.08699581  0.37715925    -0.01900
C1452       C  0.87497445  0.09326436  0.38215639     0.03100
C1453       C  0.88784503  0.13835354  0.33117209     0.37700
C1454       C  0.83837254  0.06795984  0.39170587     0.37700
C1455       C  0.88754432  0.08187456  0.40277070     0.36100
C1456       C  0.83732383  0.12809108  0.32262959     0.36100
N1457       N  0.89748899  0.07272094  0.41922300    -0.38700
N1458       N  0.82753860  0.13796261  0.30649756    -0.38700
N1459       N  0.82901497  0.05273429  0.40329985    -0.38100
N1460       N  0.89831837  0.15150930  0.31808899    -0.38100
C1461       C  0.02358587  0.45579802  0.19953763    -0.04800
C1462       C  0.01483287  0.43546135  0.21312244    -0.01900
C1463       C  0.02464010  0.43014885  0.23655452     0.03100
C1464       C  0.04283627  0.44559770  0.24704216    -0.04800
C1465       C  0.05133931  0.46617477  0.23354454    -0.01900
C1466       C  0.04215714  0.47091779  0.20968786     0.03100
C1467       C  0.99581676  0.41972207  0.20289308     0.37700
C1468       C  0.06955674  0.48259410  0.24409715     0.37700
C1469       C  0.05134188  0.49186210  0.19591467     0.36100
C1470       C  0.01517200  0.40918053  0.25010778     0.36100
N1471       N  0.05876887  0.50854253  0.18496044    -0.38700
N1472       N  0.00763307  0.39234377  0.26074353    -0.38700
N1473       N  0.08387104  0.49598805  0.25241450    -0.38100
N1474       N  0.98054701  0.40725423  0.19482568    -0.38100
C1475       C  0.86216188  0.47853627  0.07791647    -0.04800
C1476       C  0.84473758  0.48777124  0.09496091    -0.01900
C1477       C  0.81929634  0.48287670  0.09196072     0.03100
C1478       C  0.81090839  0.46849328  0.07197192    -0.04800
C1479       C  0.82823571  0.45998189  0.05447788    -0.01900
C1480       C  0.85364373  0.46488227  0.05745085     0.03100
C1481       C  0.85293087  0.50236191  0.11573762     0.37700
C1482       C  0.81995969  0.44632848  0.03308396     0.37700
C1483       C  0.87101900  0.45471221  0.03991858     0.36100
C1484       C  0.80192855  0.49186536  0.11012963     0.36100
N1485       N  0.88476003  0.44653222  0.02585670    -0.38700
N1486       N  0.78814914  0.49910258  0.12466575    -0.38700
N1487       N  0.81340433  0.43539429  0.01604243    -0.38100
N1488       N  0.85948447  0.51385311  0.13240787    -0.38100
C1489       C  0.02183168  0.62186516  0.24171119    -0.04800
C1490       C  0.03349601  0.63233320  0.22088013    -0.01900
C1491       C  0.02558786  0.62627114  0.19685621     0.03100
C1492       C  0.00631807  0.60908763  0.19316796    -0.04800
C1493       C  0.99461906  0.59864160  0.21400687    -0.01900
C1494       C  0.00208566  0.60523541  0.23805502     0.03100
C1495       C  0.05420424  0.64894040  0.22394702     0.37700
C1496       C  0.97528262  0.58047425  0.21090901     0.37700
C1497       C  0.98872891  0.59541920  0.25901389     0.36100
C1498       C  0.03695829  0.63847571  0.17598063     0.36100
N1499       N  0.97797273  0.58759384  0.27566431    -0.38700
N1500       N  0.04609638  0.64826944  0.15940939    -0.38700
N1501       N  0.95984139  0.56598106  0.20857734    -0.38100
N1502       N  0.07070332  0.66222704  0.22625206    -0.38100
C1503       C  0.86354300  0.59367861  0.05025769    -0.04800
C1504       C  0.84300605  0.58830275  0.06544842    -0.01900
C1505       C  0.81931396  0.59677097  0.05906450     0.03100
C1506       C  0.81579228  0.61038309  0.03725987    -0.04800
C1507       C  0.83599441  0.61516511  0.02165715    -0.01900
C1508       C  0.85980925  0.60703175  0.02815367     0.03100
C1509       C  0.84606912  0.57401282  0.08777081     0.37700
C1510       C  0.83219443  0.62838978  0.99875580     0.37700
C1511       C  0.88046965  0.61363569  0.01255354     0.36100
C1512       C  0.79873159  0.59236433  0.07556562     0.36100
N1513       N  0.89681067  0.61903455  0.99996686    -0.38700
N1514       N  0.78238880  0.58891271  0.08881296    -0.38700
N1515       N  0.82907400  0.63886078  0.98047977    -0.38100
N1516       N  0.84840254  0.56282307  0.10572070    -0.38100
C1517       C  0.89830090  0.95073075  0.41445675    -0.04800
C1518       C  0.87725140  0.93628087  0.41959171    -0.01900
C1519       C  0.85394947  0.94325429  0.41049849     0.03100
C1520       C  0.85132841  0.96502263  0.39652479    -0.04800
C1521       C  0.87224994  0.97979970  0.39187042    -0.01900
C1522       C  0.89564342  0.97260483  0.40059040     0.03100
C1523       C  0.87943047  0.91426856  0.43453668     0.37700
C1524       C  0.86980906  0.00254217  0.37811144     0.37700
C1525       C  0.91706721  0.98718819  0.39404464     0.36100
C1526       C  0.83293983  0.92723226  0.41453176     0.36100
N1527       N  0.93406303  0.99888281  0.38867269    -0.38700
N1528       N  0.81626113  0.91434306  0.41768633    -0.38700
N1529       N  0.86799410  0.02061677  0.36703465    -0.38100
N1530       N  0.88113030  0.89675670  0.44650457    -0.38100
C1531       C  0.04085742  0.80732768  0.40276828    -0.04800
C1532       C  0.06159358  0.80385603  0.38722437    -0.01900
C1533       C  0.06766334  0.78015418  0.37855811     0.03100
C1534       C  0.05341147  0.75966769  0.38558112    -0.04800
C1535       C  0.03308727  0.76290971  0.40143782    -0.01900
C1536       C  0.02691205  0.78654100  0.41012202     0.03100
C1537       C  0.07657037  0.82457715  0.37956303     0.37700
C1538       C  0.01798850  0.74194822  0.40825645     0.37700
C1539       C  0.00658544  0.78912135  0.42727567     0.36100
C1540       C  0.08874087  0.77676931  0.36246681     0.36100
N1541       N  0.99036909  0.79091512  0.44099004    -0.38700
N1542       N  0.10552343  0.77403076  0.34962069    -0.38700
N1543       N  0.00591340  0.72524085  0.41360918    -0.38100
N1544       N  0.08878749  0.84095122  0.37352931    -0.38100
C1545       C  0.71809631  0.97027581  0.19141750    -0.04800
C1546       C  0.73609995  0.98862156  0.19561983    -0.01900
C1547       C  0.74037112  0.99748971  0.21963455     0.03100
C1548       C  0.72716215  0.98769450  0.23974945    -0.04800
C1549       C  0.70930324  0.96922909  0.23562540    -0.01900
C1550       C  0.70459534  0.96076386  0.21155665     0.03100
C1551       C  0.75093278  0.99782490  0.17539675     0.37700
C1552       C  0.69622045  0.95830457  0.25620995     0.37700
C1553       C  0.68532127  0.94270398  0.20756934     0.36100
C1554       C  0.75786037  0.01728459  0.22356433     0.36100
N1555       N  0.66991053  0.92832660  0.20446683    -0.38700
N1556       N  0.77163178  0.03322140  0.22670111    -0.38700
N1557       N  0.68580108  0.94956085  0.27261364    -0.38100
N1558       N  0.76286478  0.00511482  0.15931365    -0.38100
C1559       C  0.69062872  0.81962057  0.05701981    -0.04800
C1560       C  0.67821768  0.80166932  0.07115064    -0.01900
C1561       C  0.67962657  0.77659192  0.06463964     0.03100
C1562       C  0.69379373  0.76911963  0.04409182    -0.04800
C1563       C  0.70616518  0.78716278  0.02992101    -0.01900
C1564       C  0.70455682  0.81225257  0.03633733     0.03100
C1565       C  0.66366106  0.80900224  0.09230179     0.37700
C1566       C  0.72020033  0.78007824  0.00833646     0.37700
C1567       C  0.71801675  0.83041246  0.02208999     0.36100
C1568       C  0.66699433  0.75848979  0.07966208     0.36100
N1569       N  0.72877642  0.84489785  0.01076424    -0.38700
N1570       N  0.65679262  0.74411999  0.09162992    -0.38700
N1571       N  0.73144126  0.77454173  0.99111600    -0.38100
N1572       N  0.65211320  0.81481764  0.10922214    -0.38100
C1573       C  0.51771960  0.93562942  0.17523425    -0.04800
C1574       C  0.53402828  0.92185838  0.19008798    -0.01900
C1575       C  0.53349268  0.92426167  0.21598770     0.03100
C1576       C  0.51653925  0.94040016  0.22732139    -0.04800
C1577       C  0.50054492  0.95451789  0.21235989    -0.01900
C1578       C  0.50099685  0.95198510  0.18650078     0.03100
C1579       C  0.55150577  0.90523464  0.17868524     0.37700
C1580       C  0.48383251  0.97208426  0.22349352     0.37700
C1581       C  0.48336787  0.96538281  0.17158022     0.36100
C1582       C  0.54982649  0.90938539  0.23093798     0.36100
N1583       N  0.46919276  0.97595029  0.15971503    -0.38700
N1584       N  0.56290549  0.89748012  0.24278694    -0.38700
N1585       N  0.47052096  0.98613396  0.23233453    -0.38100
N1586       N  0.56539722  0.89196158  0.16953597    -0.38100
C1587       C  0.48705792  0.81262621  0.01962255    -0.04800
C1588       C  0.46763674  0.80599822  0.00362012    -0.01900
C1589       C  0.46376198  0.78108652  0.99727229     0.03100
C1590       C  0.47921983  0.76247639  0.00694003    -0.04800
C1591       C  0.49888926  0.76925835  0.02267539    -0.01900
C1592       C  0.50301176  0.79414737  0.02857473     0.03100
C1593       C  0.45120870  0.82469442  0.99403188     0.37700
C1594       C  0.51445731  0.75068315  0.03386537     0.37700
C1595       C  0.52424108  0.80072325  0.04344740     0.36100
C1596       C  0.44411255  0.77479170  0.98030305     0.36100
N1597       N  0.54119264  0.80593167  0.05526185    -0.38700
N1598       N  0.42843091  0.76980400  0.96676828    -0.38700
N1599       N  0.52698767  0.73603214  0.04288599    -0.38100
N1600       N  0.43808317  0.83952783  0.98624859    -0.38100
C1601       C  0.34209076  0.93248872  0.40082270    -0.04800
C1602       C  0.34717227  0.94720132  0.37994504    -0.01900
C1603       C  0.37172380  0.95125460  0.37234075     0.03100
C1604       C  0.39151835  0.94028197  0.38520347    -0.04800
C1605       C  0.38647451  0.92621090  0.40654153    -0.01900
C1606       C  0.36190457  0.92236474  0.41428808     0.03100
C1607       C  0.32715610  0.95741653  0.36551778     0.37700
C1608       C  0.40643650  0.91490826  0.42019414     0.37700
C1609       C  0.35708406  0.90808900  0.43632546     0.36100
C1610       C  0.37657288  0.96728581  0.35152689     0.36100
N1611       N  0.35338989  0.89663050  0.45388693    -0.38700
N1612       N  0.38044013  0.98011899  0.33497630    -0.38700
N1613       N  0.42229922  0.90591096  0.43119539    -0.38100
N1614       N  0.31127930  0.96558476  0.35390507    -0.38100
C1615       C  0.19052094  0.80104079  0.39397973    -0.04800
C1616       C  0.16945556  0.79003031  0.40469125    -0.01900
C1617       C  0.16145049  0.76652912  0.39695001     0.03100
C1618       C  0.17418880  0.75382116  0.37810824    -0.04800
C1619       C  0.19530108  0.76485562  0.36744172    -0.01900
C1620       C  0.20333290  0.78827985  0.37525112     0.03100
C1621       C  0.15625569  0.80257511  0.42420430     0.37700
C1622       C  0.20958605  0.75181066  0.34904066     0.37700
C1623       C  0.22455566  0.79940945  0.36338172     0.36100
C1624       C  0.13989187  0.75559100  0.40837837     0.36100
N1625       N  0.24153863  0.80813771  0.35389351    -0.38700
N1626       N  0.12281700  0.74684472  0.41768643    -0.38700
N1627       N  0.22105957  0.74152888  0.33434997    -0.38100
N1628       N  0.14565198  0.81257369  0.43971749    -0.38100
C1629       C  0.35895840  0.59959108  0.00513953    -0.04800
C1630       C  0.35938626  0.58113087  0.02346001    -0.01900
C1631       C  0.33714271  0.57192671  0.03325879     0.03100
C1632       C  0.31427937  0.58120517  0.02507079    -0.04800
C1633       C  0.31385939  0.59928229  0.00632891    -0.01900
C1634       C  0.33609979  0.60831384  0.99634303     0.03100
C1635       C  0.38266372  0.57238596  0.03323910     0.37700
C1636       C  0.29066034  0.60959531  0.99804701     0.37700
C1637       C  0.33544679  0.62661509  0.97689185     0.36100
C1638       C  0.33786270  0.55278784  0.05180188     0.36100
N1639       N  0.33498293  0.64119982  0.96139007    -0.38700
N1640       N  0.33861759  0.53753277  0.06659698    -0.38700
N1641       N  0.27221967  0.61791591  0.99137475    -0.38100
N1642       N  0.40116257  0.56536920  0.04114593    -0.38100
C1643       C  0.18321766  0.61176535  0.23606771    -0.04800
C1644       C  0.16832898  0.59456541  0.22347859    -0.01900
C1645       C  0.17325532  0.58869061  0.19865020     0.03100
C1646       C  0.19292431  0.60022307  0.18601203    -0.04800
C1647       C  0.20783576  0.61739983  0.19863453    -0.01900
C1648       C  0.20326514  0.62280601  0.22363329     0.03100
C1649       C  0.14738006  0.58342939  0.23578634     0.37700
C1650       C  0.22717885  0.63049071  0.18563616     0.37700
C1651       C  0.21972234  0.63923341  0.23674493     0.36100
C1652       C  0.15821462  0.57042801  0.18627365     0.36100
N1653       N  0.23299819  0.65218698  0.24720210    -0.38700
N1654       N  0.14621246  0.55585017  0.17644312    -0.38700
N1655       N  0.24248092  0.64107211  0.17522801    -0.38100
N1656       N  0.13062216  0.57455265  0.24552730    -0.38100
C1657       C  0.86119738  0.63628293  0.88734238    -0.04800
C1658       C  0.85425569  0.65550633  0.90336168    -0.01900
C1659       C  0.82929564  0.65874639  0.90986687     0.03100
C1660       C  0.81096633  0.64285388  0.90035291    -0.04800
C1661       C  0.81816552  0.62286915  0.88528615    -0.01900
C1662       C  0.84314644  0.61963081  0.87886845     0.03100
C1663       C  0.87259499  0.67275925  0.91228469     0.37700
C1664       C  0.79992211  0.60617889  0.87522306     0.37700
C1665       C  0.85027057  0.59896934  0.86357219     0.36100
C1666       C  0.82255516  0.67858691  0.92637393     0.36100
N1667       N  0.85589257  0.58248600  0.85137153    -0.38700
N1668       N  0.81727273  0.69448934  0.93946877    -0.38700
N1669       N  0.78550779  0.59272835  0.86716299    -0.38100
N1670       N  0.88719694  0.68653581  0.91940150    -0.38100
C1671       C  0.00085110  0.63824384  0.73903407    -0.04800
C1672       C  0.01748484  0.62250731  0.72669920    -0.01900
C1673       C  0.02406667  0.62706465  0.70196688     0.03100
C1674       C  0.01283180  0.64643723  0.68868297    -0.04800
C1675       C  0.99550641  0.66165310  0.70084380    -0.01900
C1676       C  0.99033633  0.65816767  0.72604938     0.03100
C1677       C  0.02708860  0.60088737  0.73902062     0.37700
C1678       C  0.98187909  0.68022434  0.68735259     0.37700
C1679       C  0.97469501  0.67570567  0.73870105     0.36100
C1680       C  0.04288713  0.61200784  0.69048648     0.36100
N1681       N  0.96233335  0.68983847  0.74870901    -0.38700
N1682       N  0.05794110  0.59999788  0.68141241    -0.38700
N1683       N  0.97082927  0.69496819  0.67669430    -0.38100
N1684       N  0.03462191  0.58350065  0.74869229    -0.38100
C1685       C  0.67916148  0.97960159  0.73427950    -0.04800
C1686       C  0.66544115  0.99865524  0.72320380    -0.01900
C1687       C  0.67073957  0.00623455  0.69888177     0.03100
C1688       C  0.69019611  0.99516918  0.68557726    -0.04800
C1689       C  0.70358416  0.97572386  0.69657080    -0.01900
C1690       C  0.69806238  0.96798808  0.72074402     0.03100
C1691       C  0.64528582  0.00995887  0.73656459     0.37700
C1692       C  0.72247034  0.96287346  0.68273648     0.37700
C1693       C  0.71217308  0.94822305  0.73181452     0.36100
C1694       C  0.65617329  0.02558682  0.68776567     0.36100
N1695       N  0.72339592  0.93241793  0.74059008    -0.38700
N1696       N  0.64418182  0.04087196  0.67910141    -0.38700
N1697       N  0.73751562  0.95256471  0.67174833    -0.38100
N1698       N  0.62914277  0.01892936  0.74716547    -0.38100
C1699       C  0.65400384  0.82518999  0.85861087    -0.04800
C1700       C  0.67409826  0.81339793  0.84696350    -0.01900
C1701       C  0.67894142  0.78836809  0.85149574     0.03100
C1702       C  0.66401466  0.77484063  0.86798427    -0.04800
C1703       C  0.64360160  0.78640742  0.87921623    -0.01900
C1704       C  0.63866416  0.81148620  0.87459683     0.03100
C1705       C  0.69067350  0.82715515  0.83113211     0.37700
C1706       C  0.62817984  0.77283451  0.89629289     0.37700
C1707       C  0.61769700  0.82314644  0.88629964     0.36100
C1708       C  0.69923813  0.77647279  0.83881465     0.36100
N1709       N  0.60101408  0.83243747  0.89571993    -0.38700
N1710       N  0.71543749  0.76702210  0.82872624    -0.38700
N1711       N  0.61583492  0.76208284  0.90993868    -0.38100
N1712       N  0.70396937  0.83799979  0.81848682    -0.38100
C1713       C  0.99478145  0.82165440  0.52348069    -0.04800
C1714       C  0.00860363  0.80538798  0.50865877    -0.01900
C1715       C  0.00960516  0.78012829  0.51449174     0.03100
C1716       C  0.99679622  0.77097959  0.53522388    -0.04800
C1717       C  0.98249270  0.78716662  0.54963900    -0.01900
C1718       C  0.98222723  0.81247336  0.54434989     0.03100
C1719       C  0.02216730  0.81463930  0.48760886     0.37700
C1720       C  0.96735874  0.77770886  0.56955219     0.37700
C1721       C  0.97053740  0.82922002  0.56152998     0.36100
C1722       C  0.02443907  0.76377561  0.49951909     0.36100
N1723       N  0.96156854  0.84257438  0.57545304    -0.38700
N1724       N  0.03622075  0.75076063  0.48749352    -0.38700
N1725       N  0.95505529  0.77019014  0.58524748    -0.38100
N1726       N  0.03323812  0.82204896  0.47098641    -0.38100
C1727       C  0.87986954  0.98395100  0.53127938    -0.04800
C1728       C  0.85878299  0.97775749  0.51744149    -0.01900
C1729       C  0.83524698  0.98573112  0.52495053     0.03100
C1730       C  0.83256138  0.00103936  0.54587710    -0.04800
C1731       C  0.85384286  0.00749474  0.55957400    -0.01900
C1732       C  0.87731817  0.99883702  0.55238960     0.03100
C1733       C  0.86132098  0.96353126  0.49501728     0.37700
C1734       C  0.85184047  0.02330829  0.58095378     0.37700
C1735       C  0.89874242  0.00453795  0.56730052     0.36100
C1736       C  0.81380127  0.97690827  0.51168061     0.36100
N1737       N  0.91580591  0.00899851  0.57925914    -0.38700
N1738       N  0.79682403  0.96966807  0.50102872    -0.38700
N1739       N  0.85038687  0.03583578  0.59808688    -0.38100
N1740       N  0.86331445  0.95230928  0.47706754    -0.38100
C1741       C  0.31435616  0.65210843  0.88708489    -0.04800
C1742       C  0.32271411  0.67270446  0.90044969    -0.01900
C1743       C  0.34800474  0.67536617  0.90620030     0.03100
C1744       C  0.36534104  0.65729615  0.89879909    -0.04800
C1745       C  0.35666329  0.63623988  0.88608037    -0.01900
C1746       C  0.33139861  0.63376542  0.88021269     0.03100
C1747       C  0.30537318  0.69167064  0.90761359     0.37700
C1748       C  0.37365976  0.61731722  0.87808708     0.37700
C1749       C  0.32286497  0.61205726  0.86724580     0.36100
C1750       C  0.35593062  0.69667776  0.92012686     0.36100
N1751       N  0.31602724  0.59478541  0.85687947    -0.38700
N1752       N  0.36215138  0.71380435  0.93110600    -0.38700
N1753       N  0.38700208  0.60201717  0.87171610    -0.38100
N1754       N  0.29156167  0.70681360  0.91332355    -0.38100
C1755       C  0.17676106  0.63037975  0.73969525    -0.04800
C1756       C  0.19078618  0.61703001  0.72240144    -0.01900
C1757       C  0.18637216  0.61979799  0.69698362     0.03100
C1758       C  0.16785575  0.63603018  0.68853302    -0.04800
C1759       C  0.15332953  0.64887942  0.70589783    -0.01900
C1760       C  0.15761855  0.64588199  0.73137637     0.03100
C1761       C  0.20971203  0.60016142  0.73076544     0.37700
C1762       C  0.13388525  0.66519294  0.69763481     0.37700
C1763       C  0.14284897  0.65944871  0.74898157     0.36100
C1764       C  0.20183269  0.60673817  0.67958415     0.36100
N1765       N  0.13102331  0.67021666  0.76302726    -0.38700
N1766       N  0.21417623  0.59629877  0.66573742    -0.38700
N1767       N  0.11842011  0.67831276  0.69115826    -0.38100
N1768       N  0.22480145  0.58669128  0.73739023    -0.38100
C1769       C  0.38169309  0.95321134  0.51271308    -0.04800
C1770       C  0.37025605  0.96715174  0.49397515    -0.01900
C1771       C  0.34695359  0.96019752  0.48473578     0.03100
C1772       C  0.33428091  0.93976896  0.49478327    -0.04800
C1773       C  0.34578308  0.92580578  0.51356071    -0.01900
C1774       C  0.36953182  0.93217899  0.52203724     0.03100
C1775       C  0.38194980  0.98931067  0.48476424     0.37700
C1776       C  0.33298882  0.90538650  0.52507876     0.37700
C1777       C  0.38168443  0.91654688  0.53995587     0.36100
C1778       C  0.33631529  0.97395589  0.46448578     0.36100
N1779       N  0.39135521  0.90398100  0.55415963    -0.38700
N1780       N  0.32793039  0.98502388  0.44835170    -0.38700
N1781       N  0.32294339  0.88907912  0.53440078    -0.38100
N1782       N  0.39115138  0.00705572  0.47743221    -0.38100
C1783       C  0.18910994  0.80618038  0.50537046    -0.04800
C1784       C  0.19593286  0.78415000  0.49349659    -0.01900
C1785       C  0.19020994  0.76119817  0.50422363     0.03100
C1786       C  0.17672153  0.75998339  0.52655265    -0.04800
C1787       C  0.16943900  0.78211299  0.53810216    -0.01900
C1788       C  0.17623867  0.80501529  0.52797734     0.03100
C1789       C  0.20868798  0.78501238  0.47002572     0.37700
C1790       C  0.15426671  0.78153705  0.56009381     0.37700
C1791       C  0.17105956  0.82732073  0.54164446     0.36100
C1792       C  0.19917217  0.73895906  0.49257495     0.36100
N1793       N  0.16712261  0.84505262  0.55269645    -0.38700
N1794       N  0.20640819  0.72130102  0.48319370    -0.38700
N1795       N  0.14208588  0.78120797  0.57757514    -0.38100
N1796       N  0.21887579  0.78560992  0.45132554    -0.38100
C1797       C  0.54059918  0.82518173  0.87634192    -0.04800
C1798       C  0.52392252  0.82410025  0.89631881    -0.01900
C1799       C  0.51710075  0.80120944  0.90642617     0.03100
C1800       C  0.52690827  0.77922469  0.89676880    -0.04800
C1801       C  0.54489991  0.78042309  0.87798154    -0.01900
C1802       C  0.55145817  0.80331109  0.86758461     0.03100
C1803       C  0.51281393  0.84639633  0.90583318     0.37700
C1804       C  0.55612001  0.75810920  0.86872239     0.37700
C1805       C  0.56945195  0.80439524  0.84786278     0.36100
C1806       C  0.50006144  0.80028439  0.92697815     0.36100
N1807       N  0.58383879  0.80534808  0.83216920    -0.38700
N1808       N  0.48654800  0.79959343  0.94342677    -0.38700
N1809       N  0.56525474  0.74036735  0.86138297    -0.38100
N1810       N  0.50391913  0.86412174  0.91350660    -0.38100
C1811       C  0.51003999  0.95733691  0.72401525    -0.04800
C1812       C  0.49390455  0.94247875  0.71007905    -0.01900
C1813       C  0.49063256  0.94680713  0.68468769     0.03100
C1814       C  0.50312568  0.96642980  0.67289480    -0.04800
C1815       C  0.51871833  0.98178477  0.68704785    -0.01900
C1816       C  0.52216695  0.97724856  0.71245583     0.03100
C1817       C  0.48008009  0.92297162  0.72202296     0.37700
C1818       C  0.53088396  0.00264969  0.67566580     0.37700
C1819       C  0.53876085  0.99274993  0.72649333     0.36100
C1820       C  0.47499987  0.93030877  0.67068634     0.36100
N1821       N  0.55198938  0.00519060  0.73761711    -0.38700
N1822       N  0.46246049  0.91706492  0.65969990    -0.38700
N1823       N  0.54062285  0.01929909  0.66663479    -0.38100
N1824       N  0.46903706  0.90748038  0.73160398    -0.38100
C1825       C  0.52061988  0.32439752  0.91734368    -0.04800
C1826       C  0.54351094  0.32337512  0.90484009    -0.01900
C1827       C  0.55322776  0.30056937  0.89708513     0.03100
C1828       C  0.54001273  0.27857393  0.90106071    -0.04800
C1829       C  0.51739317  0.27948914  0.91390809    -0.01900
C1830       C  0.50786755  0.30219101  0.92213491     0.03100
C1831       C  0.55663143  0.34578780  0.89865368     0.37700
C1832       C  0.50327082  0.25717527  0.91784638     0.37700
C1833       C  0.48478114  0.30252248  0.93553363     0.36100
C1834       C  0.57721512  0.29974135  0.88547737     0.36100
N1835       N  0.46621881  0.30264241  0.94598497    -0.38700
N1836       N  0.59650219  0.29928187  0.87648704    -0.38700
N1837       N  0.49196133  0.23940911  0.92097717    -0.38100
N1838       N  0.56718345  0.36356780  0.89355100    -0.38100
C1839       C  0.55655927  0.15597203  0.74022717    -0.04800
C1840       C  0.56248194  0.17344205  0.72175594    -0.01900
C1841       C  0.55526106  0.16957699  0.69705406     0.03100
C1842       C  0.54298950  0.14774159  0.69020118    -0.04800
C1843       C  0.53785107  0.12987374  0.70834101    -0.01900
C1844       C  0.54401027  0.13416059  0.73323103     0.03100
C1845       C  0.57661719  0.19523328  0.72785304     0.37700
C1846       C  0.52664500  0.10667610  0.70132733     0.37700
C1847       C  0.53623000  0.11639494  0.75157216     0.36100
C1848       C  0.55957473  0.18863510  0.67886484     0.36100
N1849       N  0.52987558  0.10209068  0.76601796    -0.38700
N1850       N  0.56283819  0.20390538  0.66439248    -0.38700
N1851       N  0.51784755  0.08813014  0.69572192    -0.38100
N1852       N  0.58796020  0.21261824  0.73256743    -0.38100
C1853       C  0.16676564  0.30782196  0.56155323    -0.04800
C1854       C  0.15512589  0.29410373  0.54278048    -0.01900
C1855       C  0.16480173  0.27122544  0.53542288     0.03100
C1856       C  0.18559288  0.26126860  0.54750029    -0.04800
C1857       C  0.19675856  0.27461166  0.56685573    -0.01900
C1858       C  0.18761090  0.29790902  0.57360497     0.03100
C1859       C  0.13272208  0.30316778  0.53138984     0.37700
C1860       C  0.21744533  0.26429295  0.58025190     0.37700
C1861       C  0.20033894  0.31197036  0.59239015     0.36100
C1862       C  0.15394467  0.25851483  0.51460321     0.36100
N1863       N  0.21058558  0.32311618  0.60735607    -0.38700
N1864       N  0.14539982  0.24845709  0.49790109    -0.38700
N1865       N  0.23396678  0.25615206  0.59095481    -0.38100
N1866       N  0.11476867  0.31024190  0.52236298    -0.38100
C1867       C  0.34147984  0.13782485  0.54488853    -0.04800
C1868       C  0.35590365  0.12038187  0.53217992    -0.01900
C1869       C  0.38080562  0.11673572  0.53865771     0.03100
C1870       C  0.39206962  0.13170360  0.55674442    -0.04800
C1871       C  0.37772061  0.14961681  0.56902413    -0.01900
C1872       C  0.35239417  0.15203503  0.56373192     0.03100
C1873       C  0.34542595  0.10676815  0.51175125     0.37700
C1874       C  0.38904121  0.16634460  0.58646515     0.37700
C1875       C  0.33742848  0.16856845  0.57840194     0.36100
C1876       C  0.39446170  0.09685733  0.52728362     0.36100
N1877       N  0.32548311  0.18159192  0.59025712    -0.38700
N1878       N  0.40521278  0.08083798  0.51832942    -0.38700
N1879       N  0.39797853  0.17983803  0.60028715    -0.38100
N1880       N  0.33713419  0.09608513  0.49531472    -0.38100
C1881       C  0.31487522  0.46352807  0.88483604    -0.04800
C1882       C  0.31975363  0.44631131  0.90379506    -0.01900
C1883       C  0.34422618  0.44133209  0.91115920     0.03100
C1884       C  0.36423849  0.45321069  0.89950522    -0.04800
C1885       C  0.35945120  0.47035654  0.88052435    -0.01900
C1886       C  0.33495904  0.47558061  0.87333077     0.03100
C1887       C  0.29968369  0.43305746  0.91543391     0.37700
C1888       C  0.37976614  0.48226514  0.86785944     0.37700
C1889       C  0.33054924  0.49401958  0.85455499     0.36100
C1890       C  0.34871445  0.42445231  0.93134734     0.36100
N1891       N  0.32716369  0.50876591  0.83958306    -0.38700
N1892       N  0.35229615  0.41102193  0.94746844    -0.38700
N1893       N  0.39595193  0.49176827  0.85774588    -0.38100
N1894       N  0.28375237  0.42244774  0.92481725    -0.38100
C1895       C  0.16745780  0.47080086  0.74295313    -0.04800
C1896       C  0.14800739  0.45367552  0.74022596    -0.01900
C1897       C  0.13984454  0.44678124  0.71656104     0.03100
C1898       C  0.15129522  0.45656483  0.69537255    -0.04800
C1899       C  0.17028040  0.47417498  0.69805154    -0.01900
C1900       C  0.17819167  0.48137915  0.72174022     0.03100
C1901       C  0.13687368  0.44237162  0.76170872     0.37700
C1902       C  0.18233699  0.48430873  0.67647689     0.37700
C1903       C  0.19701402  0.50015541  0.72426186     0.36100
C1904       C  0.11923844  0.42994246  0.71401085     0.36100
N1905       N  0.21191943  0.51524252  0.72625171    -0.38700
N1906       N  0.10272331  0.41663718  0.71193391    -0.38700
N1907       N  0.19198704  0.49239758  0.65928651    -0.38100
N1908       N  0.12793975  0.43328653  0.77878442    -0.38100
C1909       C  0.00713923  0.44122769  0.74184525    -0.04800
C1910       C  0.99934413  0.45861203  0.72421371    -0.01900
C1911       C  0.00335747  0.45437454  0.69898066     0.03100
C1912       C  0.01577998  0.43291680  0.69113067    -0.04800
C1913       C  0.02453853  0.41603253  0.70891615    -0.01900
C1914       C  0.02028737  0.42022716  0.73419831     0.03100
C1915       C  0.98735004  0.48111980  0.73206647     0.37700
C1916       C  0.03796451  0.39429881  0.70128754     0.37700
C1917       C  0.02871007  0.40247765  0.75225355     0.36100
C1918       C  0.99337793  0.47157880  0.68118065     0.36100
N1919       N  0.03547639  0.38832769  0.76664152    -0.38700
N1920       N  0.98532057  0.48535457  0.66709702    -0.38700
N1921       N  0.04859107  0.37689626  0.69524595    -0.38100
N1922       N  0.97785409  0.49907455  0.73835754    -0.38100
C1923       C  0.85852315  0.46207745  0.87425643    -0.04800
C1924       C  0.85149404  0.44317677  0.89064541    -0.01900
C1925       C  0.82635927  0.43851406  0.89520132     0.03100
C1926       C  0.80805973  0.45242022  0.88307285    -0.04800
C1927       C  0.81509079  0.47137110  0.86671534    -0.01900
C1928       C  0.84025096  0.47619733  0.86235187     0.03100
C1929       C  0.87008153  0.42767587  0.90191630     0.37700
C1930       C  0.79647963  0.48527012  0.85355450     0.37700
C1931       C  0.84732001  0.49577761  0.84563390     0.36100
C1932       C  0.81936538  0.41956611  0.91266506     0.36100
N1933       N  0.85290043  0.51140245  0.83228871    -0.38700
N1934       N  0.81385888  0.40450030  0.92666815    -0.38700
N1935       N  0.78162340  0.49631915  0.84303858    -0.38100
N1936       N  0.88492895  0.41524666  0.91076385    -0.38100
C1937       C  0.01068399  0.30864623  0.53225507    -0.04800
C1938       C  0.02863719  0.29272135  0.54233160    -0.01900
C1939       C  0.02839917  0.26746007  0.53657647     0.03100
C1940       C  0.01070144  0.25800392  0.51998861    -0.04800
C1941       C  0.99426845  0.27434237  0.50818003    -0.01900
C1942       C  0.99408529  0.29950749  0.51443685     0.03100
C1943       C  0.04742901  0.30226227  0.55877020     0.37700
C1944       C  0.97716236  0.26515448  0.48983769     0.37700
C1945       C  0.97576468  0.31557123  0.50356715     0.36100
C1946       C  0.04530867  0.25111233  0.54919620     0.36100
N1947       N  0.96108882  0.32831160  0.49487893    -0.38700
N1948       N  0.05876881  0.23816548  0.55941493    -0.38700
N1949       N  0.96351384  0.25781629  0.47522687    -0.38100
N1950       N  0.06245827  0.30979476  0.57185562    -0.38100
C1951       C  0.88946079  0.10485944  0.56262278    -0.04800
C1952       C  0.87787879  0.08768706  0.54702782    -0.01900
C1953       C  0.85267209  0.08198961  0.55017967     0.03100
C1954       C  0.83898702  0.09277060  0.56957932    -0.04800
C1955       C  0.85090211  0.10966906  0.58547470    -0.01900
C1956       C  0.87603034  0.11546399  0.58210941     0.03100
C1957       C  0.89172620  0.07641331  0.52717957     0.37700
C1958       C  0.83704563  0.12256103  0.60428881     0.37700
C1959       C  0.88824030  0.13217176  0.59897774     0.36100
C1960       C  0.84091991  0.06550486  0.53286434     0.36100
N1961       N  0.89803865  0.14535075  0.61251657    -0.38700
N1962       N  0.83195637  0.05270239  0.51843479    -0.38700
N1963       N  0.82605324  0.13303787  0.61920441    -0.38100
N1964       N  0.90276856  0.06734534  0.51140085    -0.38100
C1965       C  0.66186181  0.31616718  0.86453817    -0.04800
C1966       C  0.64605261  0.30758696  0.84579289    -0.01900
C1967       C  0.63978054  0.28241314  0.84443488     0.03100
C1968       C  0.64958539  0.26544621  0.86159312    -0.04800
C1969       C  0.66537159  0.27409917  0.88040681    -0.01900
C1970       C  0.67148944  0.29927816  0.88183149     0.03100
C1971       C  0.63675203  0.32453535  0.82740958     0.37700
C1972       C  0.67608946  0.25709380  0.89796106     0.37700
C1973       C  0.68766081  0.30776673  0.90132608     0.36100
C1974       C  0.62214182  0.27424536  0.82610947     0.36100
N1975       N  0.70066669  0.31446624  0.91680401    -0.38700
N1976       N  0.60790105  0.26775926  0.81165671    -0.38700
N1977       N  0.68463679  0.24364556  0.91207486    -0.38100
N1978       N  0.62941151  0.33799452  0.81264570    -0.38100
C1979       C  0.68157158  0.09050942  0.69501576    -0.04800
C1980       C  0.66401629  0.10957497  0.69733868    -0.01900
C1981       C  0.65532324  0.11660920  0.72075970     0.03100
C1982       C  0.66477809  0.10541395  0.74225806    -0.04800
C1983       C  0.68204762  0.08609971  0.73996159    -0.01900
C1984       C  0.69024646  0.07857902  0.71646002     0.03100
C1985       C  0.65580815  0.12307508  0.67582251     0.37700
C1986       C  0.69227846  0.07455698  0.76174123     0.37700
C1987       C  0.70761023  0.05842825  0.71441359     0.36100
C1988       C  0.63623177  0.13518666  0.72264304     0.36100
N1989       N  0.72149528  0.04239023  0.71280124    -0.38700
N1990       N  0.62098860  0.14995097  0.72420369    -0.38700
N1991       N  0.70055166  0.06528848  0.77903360    -0.38100
N1992       N  0.64928089  0.13406789  0.65879813    -0.38100
loop_ 
_geom_bond_atom_site_label_1 
_geom_bond_atom_site_label_2 
_geom_bond_distance 
_geom_bond_site_symmetry_2 
_ccdc_geom_bond_type 
N1            N2   1.321       .  A
N1            C5   1.343       .  A
N1           Cu9   2.067       .  S
N2            C3   1.348       .  A
N2           Cu8   2.084       .  S
C3            C4   1.390       .  A
C3            H6   1.082       .  S
C4            C5   1.383       .  A
C4         C1968   1.493       .  S
C5            H7   1.082       .  S
Cu8          N11   2.085       .  S
Cu9          N19   2.067       .  S
Cu10         N12   2.073       .  S
Cu10         N18   2.073       .  S
N11          N12   1.324       .  A
N11          C15   1.347       .  A
N12          C13   1.343       .  A
C13          C14   1.378       .  A
C13          H16   1.083       .  S
C14          C15   1.383       .  A
C14        C1304   1.460       .  S
C15          H17   1.083       .  S
N18          N19   1.320       .  A
N18          C22   1.348       .  A
N19          C20   1.342       .  A
C20          C21   1.384       .  A
C20          H23   1.082       .  S
C21          C22   1.388       .  A
C21        C1982   1.492       .  S
C22          H24   1.081       .  S
N25          N26   1.321   1_655  A
N25          C29   1.342       .  A
N25         Cu33   2.069       .  S
N26          C27   1.347       .  A
N26         Cu32   2.076       .  S
C27          C28   1.388       .  A
C27          H30   1.082       .  S
C28          C29   1.383   1_455  A
C28        C1940   1.489       .  S
C29          H31   1.082       .  S
Cu32         N35   2.077       .  S
Cu33         N43   2.069       .  S
Cu34         N36   2.078   1_655  S
Cu34         N42   2.078       .  S
N35          N36   1.324       .  A
N35          C39   1.344       .  A
N36          C37   1.346       .  A
C37          C38   1.381       .  A
C37          H40   1.082       .  S
C38          C39   1.381       .  A
C38        C1261   1.461       .  S
C39          H41   1.082       .  S
N42          N43   1.322       .  A
N42          C46   1.348       .  A
N43          C44   1.343       .  A
C44          C45   1.382       .  A
C44          H47   1.082       .  S
C45          C46   1.385       .  A
C45        C1951   1.485       .  S
C46          H48   1.082       .  S
N49          N50   1.321   1_655  A
N49          C53   1.340       .  A
N49         Cu57   2.060       .  S
N50          C51   1.347       .  A
N50         Cu56   2.073       .  S
C51          C52   1.385   1_455  A
C51          H54   1.081       .  S
C52          C53   1.380       .  A
C52        C1909   1.482   1_655  S
C53          H55   1.081       .  S
Cu56         N59   2.073       .  S
Cu57         N67   2.060       .  S
Cu58         N60   2.080       .  S
Cu58         N66   2.079       .  S
N59          N60   1.324   1_455  A
N59          C63   1.345       .  A
N60          C61   1.346   1_655  A
C61          C62   1.382       .  A
C61          H64   1.082   1_455  S
C62          C63   1.378       .  A
C62        C1292   1.462       .  S
C63          H65   1.082       .  S
N66          N67   1.322       .  A
N66          C70   1.346       .  A
N67          C68   1.343       .  A
C68          C69   1.380       .  A
C68          H71   1.082       .  S
C69          C70   1.385       .  A
C69        C1923   1.482       .  S
C70          H72   1.081       .  S
N73          N74   1.321       .  A
N73          C77   1.343       .  A
N73         Cu81   2.061       .  S
N74          C75   1.346       .  A
N74         Cu80   2.075       .  S
C75          C76   1.385       .  A
C75          H78   1.081       .  S
C76          C77   1.381       .  A
C76        C1926   1.483       .  S
C77          H79   1.082       .  S
Cu80         N83   2.075       .  S
Cu81         N91   2.062       .  S
Cu82         N84   2.101       .  S
Cu82         N90   2.101       .  S
N83          N84   1.325       .  A
N83          C87   1.346       .  A
N84          C85   1.350       .  A
C85          C86   1.386       .  A
C85          H88   1.082       .  S
C86          C87   1.380       .  A
C86        C1234   1.472       .  S
C87          H89   1.082       .  S
N90          N91   1.323       .  A
N90          C94   1.350       .  A
N91          C92   1.343       .  A
C92          C93   1.381       .  A
C92          H95   1.081       .  S
C93          C94   1.389       .  A
C93        C1965   1.491       .  S
C94          H96   1.081       .  S
N97          N98   1.321       .  A
N97         C101   1.342       .  A
N97        Cu105   2.066       .  S
N98          C99   1.348       .  A
N98        Cu104   2.079       .  S
C99         C100   1.387       .  A
C99         H102   1.082       .  S
C100        C101   1.383       .  A
C100       C1937   1.490       .  S
C101        H103   1.082       .  S
Cu104       N107   2.079       .  S
Cu105       N115   2.066       .  S
Cu106       N108   2.075       .  S
Cu106       N114   2.074       .  S
N107        N108   1.323       .  A
N107        C111   1.345       .  A
N108        C109   1.346       .  A
C109        C110   1.382       .  A
C109        H112   1.083       .  S
C110        C111   1.382       .  A
C110       C1206   1.465       .  S
C111        H113   1.083       .  S
N114        N115   1.321       .  A
N114        C118   1.344       .  A
N115        C116   1.344       .  A
C116        C117   1.384       .  A
C116        H119   1.082       .  S
C117        C118   1.386       .  A
C117       C1912   1.489       .  S
C118        H120   1.081       .  S
N121        N122   1.321       .  A
N121        C125   1.345       .  A
N121       Cu129   2.080       .  S
N122        C123   1.347       .  A
N122       Cu128   2.079       .  S
C123        C124   1.387       .  A
C123        H126   1.081       .  S
C124        C125   1.387       .  A
C124       C1954   1.496       .  S
C125        H127   1.081       .  S
Cu128       N131   2.079       .  S
Cu129       N139   2.080       .  S
Cu130       N132   2.072       .  S
Cu130       N138   2.072       .  S
N131        N132   1.324       .  A
N131        C135   1.345       .  A
N132        C133   1.346       .  A
C133        C134   1.380       .  A
C133        H136   1.082       .  S
C134        C135   1.381       .  A
C134       C1191   1.462       .  S
C135        H137   1.082       .  S
N138        N139   1.322       .  A
N138        C142   1.345       .  A
N139        C140   1.346       .  A
C140        C141   1.386       .  A
C140        H143   1.081       .  S
C141        C142   1.386       .  A
C141       C1979   1.493       .  S
C142        H144   1.082       .  S
N145        N146   1.323       .  A
N145        C149   1.348       .  A
N145       Cu153   2.090       .  S
N146        C147   1.345       .  A
N146       Cu152   2.076       .  S
C147        C148   1.383       .  A
C147        H150   1.081       .  S
C148        C149   1.387       .  A
C148       C1895   1.491       .  S
C149        H151   1.082       .  S
Cu152       N155   2.076       .  S
Cu153       N163   2.090       .  S
Cu154       N156   2.087       .  S
Cu154       N162   2.087       .  S
N155        N156   1.323       .  A
N155        C159   1.348       .  A
N156        C157   1.347       .  A
C157        C158   1.384       .  A
C157        H160   1.083       .  S
C158        C159   1.382       .  A
C158       C1289   1.470       .  S
C159        H161   1.083       .  S
N162        N163   1.323       .  A
N162        C166   1.346       .  A
N163        C164   1.348       .  A
C164        C165   1.389       .  A
C164        H167   1.081       .  S
C165        C166   1.388       .  A
C165       C1881   1.500       .  S
C166        H168   1.081       .  S
N169        N170   1.320       .  A
N169        C173   1.344       .  A
N169       Cu177   2.067       .  S
N170        C171   1.343       .  A
N170       Cu176   2.063       .  S
C171        C172   1.384       .  A
C171        H174   1.082       .  S
C172        C173   1.386       .  A
C172       C1856   1.489       .  S
C173        H175   1.082       .  S
Cu176       N179   2.063       .  S
Cu177       N187   2.069       .  S
Cu178       N180   2.080       .  S
Cu178       N186   2.081       .  S
N179        N180   1.323       .  A
N179        C183   1.341       .  A
N180        C181   1.349       .  A
C181        C182   1.383       .  A
C181        H184   1.082       .  S
C182        C183   1.377       .  A
C182       C1264   1.460       .  S
C183        H185   1.083       .  S
N186        N187   1.323       .  A
N186        C190   1.346       .  A
N187        C188   1.343       .  A
C188        C189   1.382       .  A
C188        H191   1.082       .  S
C189        C190   1.385       .  A
C189       C1867   1.488       .  S
C190        H192   1.082       .  S
N193        N194   1.322       .  A
N193        C197   1.348       .  A
N193       Cu201   2.089       .  S
N194        C195   1.346       .  A
N194       Cu200   2.074       .  S
C195        C196   1.385       .  A
C195        H198   1.081       .  S
C196        C197   1.387       .  A
C196       C1828   1.493       .  S
C197        H199   1.082       .  S
Cu200       N203   2.074       .  S
Cu201       N211   2.090       .  S
Cu202       N204   2.082       .  S
Cu202       N210   2.082       .  S
N203        N204   1.323       .  A
N203        C207   1.344       .  A
N204        C205   1.349       .  A
C205        C206   1.382       .  A
C205        H208   1.082       .  S
C206        C207   1.379       .  A
C206       C1275   1.464       .  S
C207        H209   1.083       .  S
N210        N211   1.322       .  A
N210        C214   1.346       .  A
N211        C212   1.347       .  A
C212        C213   1.390       .  A
C212        H215   1.081       .  S
C213        C214   1.389       .  A
C213       C1839   1.503       .  S
C214        H216   1.081       .  S
N217        N218   1.321       .  A
N217        C221   1.347       .  A
N217       Cu225   2.087       .  S
N218        C219   1.345       .  A
N218       Cu224   2.069       .  S
C219        C220   1.385       .  A
C219        H222   1.081       .  S
C220        C221   1.389       .  A
C220       C1884   1.495       .  S
C221        H223   1.081       .  S
Cu224       N227   2.068       .  S
Cu225       N235   2.087       .  S
Cu226       N228   2.080       .  S
Cu226       N234   2.081       .  S
N227        N228   1.323       .  A
N227        C231   1.343       .  A
N228        C229   1.346       .  A
C229        C230   1.382       .  A
C229        H232   1.083       .  S
C230        C231   1.379       .  A
C230       C1236   1.461       .  S
C231        H233   1.083       .  S
N234        N235   1.323       .  A
N234        C238   1.347       .  A
N235        C236   1.345       .  A
C236        C237   1.387       .  A
C236        H239   1.081       .  S
C237        C238   1.388       .  A
C237       C1825   1.498       .  S
C238        H240   1.081       .  S
N241        N242   1.321       .  A
N241        C245   1.345       .  A
N241       Cu249   2.076       .  S
N242        C243   1.344       .  A
N242       Cu248   2.069       .  S
C243        C244   1.386       .  A
C243        H246   1.081       .  S
C244        C245   1.387       .  A
C244       C1870   1.493       .  S
C245        H247   1.082       .  S
Cu248       N251   2.070       .  S
Cu249       N259   2.078       .  S
Cu250       N252   2.086       .  S
Cu250       N258   2.086       .  S
N251        N252   1.323       .  A
N251        C255   1.344       .  A
N252        C253   1.347       .  A
C253        C254   1.383       .  A
C253        H256   1.083       .  S
C254        C255   1.379       .  A
C254       C1193   1.464       .  S
C255        H257   1.083       .  S
N258        N259   1.323       .  A
N258        C262   1.348       .  A
N259        C260   1.345       .  A
C260        C261   1.384       .  A
C260        H263   1.082       .  S
C261        C262   1.386       .  A
C261       C1842   1.492       .  S
C262        H264   1.081       .  S
N265        N266   1.322       .  A
N265        C269   1.346       .  A
N265       Cu273   2.075       .  S
N266        C267   1.344       .  A
N266       Cu272   2.074       .  S
C267        C268   1.384       .  A
C267        H270   1.081       .  S
C268        C269   1.386       .  A
C268       C1853   1.489       .  S
C269        H271   1.082       .  S
Cu272       N275   2.074       .  S
Cu273       N283   2.076       .  S
Cu274       N276   2.076       .  S
Cu274       N282   2.077       .  S
N275        N276   1.323       .  A
N275        C279   1.344       .  A
N276        C277   1.347       .  A
C277        C278   1.381       .  A
C277        H280   1.083       .  S
C278        C279   1.381       .  A
C278       C1177   1.463       .  S
C279        H281   1.083       .  S
N282        N283   1.323       .  A
N282        C286   1.347       .  A
N283        C284   1.344       .  A
C284        C285   1.383       .  A
C284        H287   1.082       .  S
C285        C286   1.385       .  A
C285       C1898   1.488       .  S
C286        H288   1.081       .  S
N289        N290   1.321       .  A
N289        C293   1.347       .  A
N289       Cu297   2.081       .  S
N290        C291   1.344       .  A
N290       Cu296   2.063       .  S
C291        C292   1.382       .  A
C291        H294   1.081       .  S
C292        C293   1.386       .  A
C292       C1797   1.487       .  S
C293        H295   1.082       .  S
Cu296       N299   2.062       .  S
Cu297       N307   2.082       .  S
Cu298       N300   2.082       .  S
Cu298       N306   2.083       .  S
N299        N300   1.323       .  A
N299        C303   1.343       .  A
N300        C301   1.347       .  A
C301        C302   1.384       .  A
C301        H304   1.082   1_565  S
C302        C303   1.379       .  A
C302       C1277   1.465   1_565  S
C303        H305   1.083       .  S
N306        N307   1.323       .  A
N306        C310   1.348       .  A
N307        C308   1.344       .  A
C308        C309   1.385       .  A
C308        H311   1.081       .  S
C309        C310   1.386       .  A
C309       C1811   1.492       .  S
C310        H312   1.082       .  S
N313        N314   1.322       .  A
N313        C317   1.345       .  A
N313       Cu321   2.076       .  S
N314        C315   1.344       .  A
N314       Cu320   2.074       .  S
C315        C316   1.385       .  A
C315        H318   1.081       .  S
C316        C317   1.385       .  A
C316       C1783   1.490       .  S
C317        H319   1.081       .  S
Cu320       N323   2.074       .  S
Cu321       N331   2.076       .  S
Cu322       N324   2.068       .  S
Cu322       N330   2.069       .  S
N323        N324   1.322       .  A
N323        C327   1.345       .  A
N324        C325   1.345       .  A
C325        C326   1.379       .  A
C325        H328   1.083       .  S
C326        C327   1.381       .  A
C326       C1262   1.460   1_565  S
C327        H329   1.083       .  S
N330        N331   1.321       .  A
N330        C334   1.344       .  A
N331        C332   1.345       .  A
C332        C333   1.388       .  A
C332        H335   1.081       .  S
C333        C334   1.386       .  A
C333       C1772   1.496       .  S
C334        H336   1.081       .  S
N337        N338   1.322       .  A
N337        C341   1.344       .  A
N337       Cu345   2.078       .  S
N338        C339   1.347       .  A
N338       Cu344   2.073       .  S
C339        C340   1.384       .  A
C339        H342   1.082       .  S
C340        C341   1.384       .  A
C340       C1755   1.488       .  S
C341        H343   1.082       .  S
Cu344       N347   2.074       .  S
Cu345       N355   2.079       .  S
Cu346       N348   2.087       .  S
Cu346       N354   2.088       .  S
N347        N348   1.324       .  A
N347        C351   1.345       .  A
N348        C349   1.347       .  A
C349        C350   1.382       .  A
C349        H352   1.083       .  S
C350        C351   1.380       .  A
C350       C1318   1.465       .  S
C351        H353   1.083       .  S
N354        N355   1.323       .  A
N354        C358   1.349       .  A
N355        C356   1.345       .  A
C356        C357   1.384       .  A
C356        H359   1.082       .  S
C357        C358   1.387       .  A
C357       C1741   1.493       .  S
C358        H360   1.081       .  S
N361        N362   1.321       .  A
N361        C365   1.345       .  A
N361       Cu369   2.078       .  S
N362        C363   1.348       .  A
N362       Cu368   2.090       .  S
C363        C364   1.392       .  A
C363        H366   1.081       .  S
C364        C365   1.389       .  A
C364       C1744   1.504       .  S
C365        H367   1.082       .  S
Cu368       N371   2.091       .  S
Cu369       N379   2.079       .  S
Cu370       N372   2.079       .  S
Cu370       N378   2.079       .  S
N371        N372   1.324       .  A
N371        C375   1.347       .  A
N372        C373   1.347       .  A
C373        C374   1.382       .  A
C373        H376   1.082       .  S
C374        C375   1.384       .  A
C374       C1233   1.469       .  S
C375        H377   1.082       .  S
N378        N379   1.323       .  A
N378        C382   1.348       .  A
N379        C380   1.344       .  A
C380        C381   1.383       .  A
C380        H383   1.082       .  S
C381        C382   1.385       .  A
C381       C1800   1.488       .  S
C382        H384   1.081       .  S
N385        N386   1.323       .  A
N385        C389   1.346       .  A
N385       Cu393   2.080       .  S
N386        C387   1.345       .  A
N386       Cu392   2.079       .  S
C387        C388   1.386       .  A
C387        H390   1.081       .  S
C388        C389   1.385       .  A
C388       C1758   1.491       .  S
C389        H391   1.082       .  S
Cu392       N395   2.078       .  S
Cu393       N403   2.080       .  S
Cu394       N396   2.066       .  S
Cu394       N402   2.066       .  S
N395        N396   1.323       .  A
N395        C399   1.347       .  A
N396        C397   1.343       .  A
C397        C398   1.378       .  A
C397        H400   1.083       .  S
C398        C399   1.382       .  A
C398       C1180   1.461       .  S
C399        H401   1.082       .  S
N402        N403   1.321       .  A
N402        C406   1.344       .  A
N403        C404   1.346       .  A
C404        C405   1.389       .  A
C404        H407   1.081       .  S
C405        C406   1.386       .  A
C405       C1786   1.495       .  S
C406        H408   1.081       .  S
N409        N410   1.321       .  A
N409        C413   1.345       .  A
N409       Cu417   2.074       .  S
N410        C411   1.347       .  A
N410       Cu416   2.079       .  S
C411        C412   1.387       .  A
C411        H414   1.082       .  S
C412        C413   1.386       .  A
C412       C1769   1.493       .  S
C413        H415   1.082       .  S
Cu416       N419   2.079       .  S
Cu417       N427   2.074       .  S
Cu418       N420   2.087       .  S
Cu418       N426   2.087       .  S
N419        N420   1.325       .  A
N419        C423   1.346       .  A
N420        C421   1.347       .  A
C421        C422   1.382       .  A
C421        H424   1.083       .  S
C422        C423   1.380       .  A
C422       C1221   1.466       .  S
C423        H425   1.083       .  S
N426        N427   1.322       .  A
N426        C430   1.348       .  A
N427        C428   1.344       .  A
C428        C429   1.386       .  A
C428        H431   1.082       .  S
C429        C430   1.389       .  A
C429       C1814   1.497       .  S
C430        H432   1.081       .  S
N433        N434   1.321       .  A
N433        C437   1.343       .  A
N433       Cu441   2.067       .  S
N434        C435   1.347       .  A
N434       Cu440   2.075       .  S
C435        C436   1.386       .  A
C435        H438   1.082   1_565  S
C436        C437   1.383       .  A
C436       C1727   1.488       .  S
C437        H439   1.082       .  S
Cu440       N443   2.075   1_655  S
Cu441       N451   2.067       .  S
Cu442       N444   2.071       .  S
Cu442       N450   2.070       .  S
N443        N444   1.324       .  A
N443        C447   1.344       .  A
N444        C445   1.345       .  A
C445        C446   1.379       .  A
C445        H448   1.083       .  S
C446        C447   1.378       .  A
C446       C1263   1.457   1_565  S
C447        H449   1.083   1_565  S
N450        N451   1.321   1_455  A
N450        C454   1.346       .  A
N451        C452   1.342       .  A
C452        C453   1.383       .  A
C452        H455   1.082       .  S
C453        C454   1.385   1_655  A
C453       C1713   1.486       .  S
C454        H456   1.081       .  S
N457        N458   1.323       .  A
N457        C461   1.344       .  A
N457       Cu465   2.071       .  S
N458        C459   1.349       .  A
N458       Cu464   2.094       .  S
C459        C460   1.387       .  A
C459        H462   1.082   1_565  S
C460        C461   1.381       .  A
C460       C1685   1.489       .  S
C461        H463   1.083       .  S
Cu464       N467   2.094       .  S
Cu465       N475   2.070       .  S
Cu466       N468   2.080       .  S
Cu466       N474   2.079       .  S
N467        N468   1.324       .  A
N467        C471   1.349   1_565  A
N468        C469   1.346       .  A
C469        C470   1.382       .  A
C469        H472   1.082       .  S
C470        C471   1.385   1_565  A
C470       C1306   1.472   1_565  S
C471        H473   1.082       .  S
N474        N475   1.321       .  A
N474        C478   1.346       .  A
N475        C476   1.344       .  A
C476        C477   1.385       .  A
C476        H479   1.082       .  S
C477        C478   1.387       .  A
C477       C1699   1.491       .  S
C478        H480   1.081       .  S
N481        N482   1.323       .  A
N481        C485   1.345       .  A
N481       Cu489   2.080       .  S
N482        C483   1.346   1_655  A
N482       Cu488   2.079   1_655  S
C483        C484   1.386   1_455  A
C483        H486   1.082       .  S
C484        C485   1.386       .  A
C484       C1671   1.493   1_655  S
C485        H487   1.082       .  S
Cu488       N491   2.079       .  S
Cu489       N499   2.080       .  S
Cu490       N492   2.060   1_655  S
Cu490       N498   2.060       .  S
N491        N492   1.323       .  A
N491        C495   1.345       .  A
N492        C493   1.344       .  A
C493        C494   1.377       .  A
C493        H496   1.082       .  S
C494        C495   1.382       .  A
C494       C1319   1.459       .  S
C495        H497   1.082       .  S
N498        N499   1.321       .  A
N498        C502   1.344       .  A
N499        C500   1.346       .  A
C500        C501   1.386       .  A
C500        H503   1.082       .  S
C501        C502   1.382       .  A
C501       C1657   1.487       .  S
C502        H504   1.081       .  S
N505        N506   1.319       .  A
N505        C509   1.343       .  A
N505       Cu513   2.065       .  S
N506        C507   1.344       .  A
N506       Cu512   2.066       .  S
C507        C508   1.388       .  A
C507        H510   1.081       .  S
C508        C509   1.388       .  A
C508       C1674   1.495       .  S
C509        H511   1.082       .  S
Cu512       N515   2.066       .  S
Cu513       N523   2.066       .  S
Cu514       N516   2.076       .  S
Cu514       N522   2.076       .  S
N515        N516   1.323       .  A
N515        C519   1.343       .  A
N516        C517   1.346       .  A
C517        C518   1.381       .  A
C517        H520   1.082       .  S
C518        C519   1.378       .  A
C518       C1207   1.459       .  S
C519        H521   1.082       .  S
N522        N523   1.324       .  A
N522        C526   1.346   1_455  A
N523        C524   1.340       .  A
C524        C525   1.380       .  A
C524        H527   1.090       .  S
C525        C526   1.385   1_455  A
C525       C1716   1.485   1_455  S
C526        H528   1.089       .  S
N529        N530   1.319       .  A
N529        C533   1.343       .  A
N529       Cu537   2.065       .  S
N530        C531   1.346       .  A
N530       Cu536   2.074       .  S
C531        C532   1.389       .  A
C531        H534   1.081       .  S
C532        C533   1.385       .  A
C532       C1660   1.493       .  S
C533        H535   1.082       .  S
Cu536       N539   2.076       .  S
Cu537       N547   2.066       .  S
Cu538       N540   2.083       .  S
Cu538       N546   2.083       .  S
N539        N540   1.324       .  A
N539        C543   1.343       .  A
N540        C541   1.348       .  A
C541        C542   1.383       .  A
C541        H544   1.083       .  S
C542        C543   1.380       .  A
C542       C1235   1.464       .  S
C543        H545   1.083       .  S
N546        N547   1.322       .  A
N546        C550   1.348       .  A
N547        C548   1.342       .  A
C548        C549   1.382       .  A
C548        H551   1.082       .  S
C549        C550   1.387       .  A
C549       C1702   1.489       .  S
C550        H552   1.081       .  S
N553        N554   1.321       .  A
N553        C557   1.344       .  A
N553       Cu561   2.072       .  S
N554        C555   1.348       .  A
N554       Cu560   2.082       .  S
C555        C556   1.387       .  A
C555        H558   1.081       .  S
C556        C557   1.385       .  A
C556       C1688   1.493   1_545  S
C557        H559   1.081       .  S
Cu560       N563   2.082       .  S
Cu561       N571   2.071       .  S
Cu562       N564   2.080       .  S
Cu562       N570   2.079       .  S
N563        N564   1.324       .  A
N563        C567   1.345       .  A
N564        C565   1.348       .  A
C565        C566   1.383       .  A
C565        H568   1.082       .  S
C566        C567   1.381       .  A
C566       C1219   1.465       .  S
C567        H569   1.082       .  S
N570        N571   1.321       .  A
N570        C574   1.344       .  A
N571        C572   1.345       .  A
C572        C573   1.386       .  A
C572        H575   1.081       .  S
C573        C574   1.389       .  A
C573       C1730   1.498       .  S
C574        H576   1.082       .  S
N577        N578   1.323       .  A
N577        C581   1.345       .  A
N577       Cu585   2.081       .  S
N578        C579   1.345       .  A
N578       Cu584   2.072       .  S
C579        C580   1.384       .  A
C579        H582   1.082       .  S
C580        C581   1.385       .  A
C580       C1632   1.489       .  S
C581        H583   1.081       .  S
Cu584       N587   2.071       .  S
Cu585       N595   2.081       .  S
Cu586       N588   2.066       .  S
Cu586       N594   2.066       .  S
N587        N588   1.322       .  A
N587        C591   1.346       .  A
N588        C589   1.342       .  A
C589        C590   1.379       .  A
C589        H592   1.082       .  S
C590        C591   1.382       .  A
C590       C1320   1.461   1_554  S
C591        H593   1.082   1_554  S
N594        N595   1.322       .  A
N594        C598   1.343       .  A
N595        C596   1.346       .  A
C596        C597   1.387       .  A
C596        H599   1.088       .  S
C597        C598   1.383       .  A
C597       C1646   1.491       .  S
C598        H600   1.086       .  S
N601        N602   1.322       .  A
N601        C605   1.346       .  A
N601       Cu609   2.085       .  S
N602        C603   1.347       .  A
N602       Cu608   2.081       .  S
C603        C604   1.386       .  A
C603        H606   1.081       .  S
C604        C605   1.388       .  A
C604       C1615   1.497       .  S
C605        H607   1.081       .  S
Cu608       N611   2.081       .  S
Cu609       N619   2.085       .  S
Cu610       N612   2.076       .  S
Cu610       N618   2.076       .  S
N611        N612   1.323       .  A
N611        C615   1.345       .  A
N612        C613   1.348       .  A
C613        C614   1.381       .  A
C613        H616   1.082       .  S
C614        C615   1.382       .  A
C614       C1247   1.466       .  S
C615        H617   1.083       .  S
N618        N619   1.323       .  A
N618        C622   1.345       .  A
N619        C620   1.347       .  A
C620        C621   1.386       .  A
C620        H623   1.083       .  S
C621        C622   1.384       .  A
C621       C1601   1.492       .  S
C622        H624   1.084       .  S
N625        N626   1.322       .  A
N625        C629   1.345       .  A
N625       Cu633   2.069       .  S
N626        C627   1.348       .  A
N626       Cu632   2.087       .  S
C627        C628   1.387       .  A
C627        H630   1.081       .  S
C628        C629   1.383       .  A
C628       C1573   1.490       .  S
C629        H631   1.082       .  S
Cu632       N635   2.087       .  S
Cu633       N643   2.069       .  S
Cu634       N636   2.087       .  S
Cu634       N642   2.086       .  S
N635        N636   1.325       .  A
N635        C639   1.347       .  A
N636        C637   1.347   1_554  A
C637        C638   1.382   1_556  A
C637        H640   1.083       .  S
C638        C639   1.382       .  A
C638       C1276   1.468   1_564  S
C639        H641   1.083   1_565  S
N642        N643   1.322       .  A
N642        C646   1.350       .  A
N643        C644   1.342       .  A
C644        C645   1.383       .  A
C644        H647   1.082       .  S
C645        C646   1.389       .  A
C645       C1587   1.493       .  S
C646        H648   1.081   1_554  S
N649        N650   1.323       .  A
N649        C653   1.343       .  A
N649       Cu657   2.075       .  S
N650        C651   1.346       .  A
N650       Cu656   2.074       .  S
C651        C652   1.384       .  A
C651        H654   1.081       .  S
C652        C653   1.382       .  A
C652       C1629   1.486   1_556  S
C653        H655   1.082   1_556  S
Cu656       N659   2.073       .  S
Cu657       N667   2.075       .  S
Cu658       N660   2.068       .  S
Cu658       N666   2.067       .  S
N659        N660   1.322       .  A
N659        C663   1.345       .  A
N660        C661   1.344       .  A
C661        C662   1.379       .  A
C661        H664   1.083   1_556  S
C662        C663   1.382       .  A
C662       C1163   1.461   1_556  S
C663        H665   1.082       .  S
N666        N667   1.320       .  A
N666        C670   1.343       .  A
N667        C668   1.346   1_556  A
C668        C669   1.389       .  A
C668        H671   1.081       .  S
C669        C670   1.387   1_554  A
C669       C1590   1.496       .  S
C670        H672   1.081       .  S
N673        N674   1.319       .  A
N673        C677   1.344       .  A
N673       Cu681   2.074       .  S
N674        C675   1.346       .  A
N674       Cu680   2.068       .  S
C675        C676   1.387       .  A
C675        H678   1.081       .  S
C676        C677   1.387       .  A
C676       C1604   1.494       .  S
C677        H679   1.081       .  S
Cu680       N683   2.068       .  S
Cu681       N691   2.074       .  S
Cu682       N684   2.099       .  S
Cu682       N690   2.099       .  S
N683        N684   1.325       .  A
N683        C687   1.342       .  A
N684        C685   1.351       .  A
C685        C686   1.386       .  A
C685        H688   1.082       .  S
C686        C687   1.375       .  A
C686       C1220   1.464       .  S
C687        H689   1.082       .  S
N690        N691   1.324       .  A
N690        C694   1.351       .  A
N691        C692   1.343       .  A
C692        C693   1.382       .  A
C692        H695   1.082       .  S
C693        C694   1.390       .  A
C693       C1576   1.494       .  S
C694        H696   1.081       .  S
N697        N698   1.324       .  A
N697        C701   1.346       .  A
N697       Cu705   2.084       .  S
N698        C699   1.347       .  A
N698       Cu704   2.087       .  S
C699        C700   1.385       .  A
C699        H702   1.082       .  S
C700        C701   1.384       .  A
C700       C1643   1.491       .  S
C701        H703   1.081       .  S
Cu704       N707   2.086       .  S
Cu705       N715   2.083       .  S
Cu706       N708   2.073       .  S
Cu706       N714   2.073       .  S
N707        N708   1.323       .  A
N707        C711   1.348       .  A
N708        C709   1.345       .  A
C709        C710   1.380       .  A
C709        H712   1.083       .  S
C710        C711   1.384       .  A
C710       C1178   1.466       .  S
C711        H713   1.083       .  S
N714        N715   1.321       .  A
N714        C718   1.345       .  A
N715        C716   1.346       .  A
C716        C717   1.390       .  A
C716        H719   1.082       .  S
C717        C718   1.386       .  A
C717       C1618   1.498       .  S
C718        H720   1.081       .  S
N721        N722   1.322       .  A
N721        C725   1.346       .  A
N721       Cu729   2.080       .  S
N722        C723   1.344       .  A
N722       Cu728   2.070       .  S
C723        C724   1.383       .  A
C723        H726   1.081       .  S
C724        C725   1.386       .  A
C724       C1545   1.489       .  S
C725        H727   1.082       .  S
Cu728       N731   2.070       .  S
Cu729       N739   2.081       .  S
Cu730       N732   2.075       .  S
Cu730       N738   2.075       .  S
N731        N732   1.323       .  A
N731        C735   1.345       .  A
N732        C733   1.345       .  A
C733        C734   1.381       .  A
C733        H736   1.083       .  S
C734        C735   1.380       .  A
C734       C1303   1.462   1_565  S
C735        H737   1.083   1_565  S
N738        N739   1.323       .  A
N738        C742   1.345       .  A
N739        C740   1.346       .  A
C740        C741   1.385       .  A
C740        H743   1.082       .  S
C741        C742   1.384       .  A
C741       C1559   1.489       .  S
C742        H744   1.081       .  S
N745        N746   1.322       .  A
N745        C749   1.343       .  A
N745       Cu753   2.077       .  S
N746        C747   1.345       .  A
N746       Cu752   2.071       .  S
C747        C748   1.385       .  A
C747        H750   1.081       .  S
C748        C749   1.384       .  A
C748       C1517   1.490       .  S
C749        H751   1.082       .  S
Cu752       N755   2.070   1_655  S
Cu753       N763   2.077   1_655  S
Cu754       N756   2.075       .  S
Cu754       N762   2.074       .  S
N755        N756   1.323       .  A
N755        C759   1.346       .  A
N756        C757   1.344       .  A
C757        C758   1.380       .  A
C757        H760   1.083       .  S
C758        C759   1.380       .  A
C758       C1250   1.461       .  S
C759        H761   1.083   1_565  S
N762        N763   1.320       .  A
N762        C766   1.345       .  A
N763        C764   1.345       .  A
C764        C765   1.388       .  A
C764        H767   1.081   1_455  S
C765        C766   1.388       .  A
C765       C1531   1.497       .  S
C766        H768   1.081       .  S
N769        N770   1.323       .  A
N769        C773   1.342       .  A
N769       Cu777   2.074       .  S
N770        C771   1.347       .  A
N770       Cu776   2.083       .  S
C771        C772   1.388       .  A
C771        H774   1.083       .  S
C772        C773   1.384       .  A
C772       C1503   1.494       .  S
C773        H775   1.082       .  S
Cu776       N779   2.083   1_655  S
Cu777       N787   2.074       .  S
Cu778       N780   2.082       .  S
Cu778       N786   2.081   1_455  S
N779        N780   1.323       .  A
N779        C783   1.350       .  A
N780        C781   1.344       .  A
C781        C782   1.382       .  A
C781        H784   1.083       .  S
C782        C783   1.384       .  A
C782       C1317   1.469   1_554  S
C783        H785   1.083   1_554  S
N786        N787   1.320       .  A
N786        C790   1.345   1_655  A
N787        C788   1.347       .  A
C788        C789   1.389       .  A
C788        H791   1.081       .  S
C789        C790   1.389   1_655  A
C789       C1492   1.500   1_655  S
C790        H792   1.082       .  S
N793        N794   1.322       .  A
N793        C797   1.344       .  A
N793       Cu801   2.070       .  S
N794        C795   1.345       .  A
N794       Cu800   2.068       .  S
C795        C796   1.382       .  A
C795        H798   1.081       .  S
C796        C797   1.382       .  A
C796       C1506   1.482       .  S
C797        H799   1.082       .  S
Cu800       N803   2.068       .  S
Cu801       N811   2.071       .  S
Cu802       N804   2.092       .  S
Cu802       N810   2.092       .  S
N803        N804   1.323       .  A
N803        C807   1.344       .  A
N804        C805   1.349       .  A
C805        C806   1.385       .  A
C805        H808   1.083       .  S
C806        C807   1.379       .  A
C806       C1165   1.467       .  S
C807        H809   1.083       .  S
N810        N811   1.323       .  A
N810        C814   1.348       .  A
N811        C812   1.344       .  A
C812        C813   1.384       .  A
C812        H815   1.081       .  S
C813        C814   1.389       .  A
C813       C1562   1.494       .  S
C814        H816   1.081       .  S
N817        N818   1.321       .  A
N817        C821   1.346       .  A
N817       Cu825   2.080       .  S
N818        C819   1.347       .  A
N818       Cu824   2.085       .  S
C819        C820   1.389       .  A
C819        H822   1.082       .  S
C820        C821   1.388       .  A
C820       C1489   1.499       .  S
C821        H823   1.081       .  S
Cu824       N827   2.085       .  S
Cu825       N835   2.080       .  S
Cu826       N828   2.075       .  S
Cu826       N834   2.076       .  S
N827        N828   1.323       .  A
N827        C831   1.345       .  A
N828        C829   1.348       .  A
C829        C830   1.382       .  A
C829        H832   1.083       .  S
C830        C831   1.382       .  A
C830       C1205   1.467       .  S
C831        H833   1.083       .  S
N834        N835   1.323       .  A
N834        C838   1.345       .  A
N835        C836   1.346       .  A
C836        C837   1.383       .  A
C836        H839   1.082       .  S
C837        C838   1.382       .  A
C837       C1534   1.484       .  S
C838        H840   1.081       .  S
N841        N842   1.321       .  A
N841        C845   1.345       .  A
N841       Cu849   2.073       .  S
N842        C843   1.344       .  A
N842       Cu848   2.065       .  S
C843        C844   1.384       .  A
C843        H846   1.081       .  S
C844        C845   1.385       .  A
C844       C1520   1.488       .  S
C845        H847   1.081       .  S
Cu848       N851   2.065       .  S
Cu849       N859   2.073       .  S
Cu850       N852   2.075       .  S
Cu850       N858   2.075       .  S
N851        N852   1.323   1_565  A
N851        C855   1.342       .  A
N852        C853   1.346       .  A
C853        C854   1.382   1_545  A
C853        H856   1.083       .  S
C854        C855   1.378       .  A
C854       C1222   1.462       .  S
C855        H857   1.083       .  S
N858        N859   1.323   1_545  A
N858        C862   1.345       .  A
N859        C860   1.344       .  A
C860        C861   1.382       .  A
C860        H863   1.082       .  S
C861        C862   1.384   1_565  A
C861       C1548   1.486       .  S
C862        H864   1.081       .  S
N865        N866   1.321   1_655  A
N865        C869   1.345       .  A
N865       Cu873   2.080       .  S
N866        C867   1.346       .  A
N866       Cu872   2.069       .  S
C867        C868   1.383       .  A
C867        H870   1.082       .  S
C868        C869   1.385   1_455  A
C868       C1461   1.488       .  S
C869        H871   1.082       .  S
Cu872       N875   2.069       .  S
Cu873       N883   2.081       .  S
Cu874       N876   2.090   1_655  S
Cu874       N882   2.091       .  S
N875        N876   1.324       .  A
N875        C879   1.343       .  A
N876        C877   1.350       .  A
C877        C878   1.385       .  A
C877        H880   1.083   1_455  S
C878        C879   1.378       .  A
C878       C1290   1.466       .  S
C879        H881   1.083       .  S
N882        N883   1.323       .  A
N882        C886   1.348       .  A
N883        C884   1.346       .  A
C884        C885   1.386       .  A
C884        H887   1.082       .  S
C885        C886   1.390       .  A
C885       C1475   1.499       .  S
C886        H888   1.081       .  S
N889        N890   1.323   1_655  A
N889        C893   1.346       .  A
N889       Cu897   2.081       .  S
N890        C891   1.346       .  A
N890       Cu896   2.082       .  S
C891        C892   1.384       .  A
C891        H894   1.081       .  S
C892        C893   1.385   1_455  A
C892       C1433   1.490       .  S
C893        H895   1.082       .  S
Cu896       N899   2.083       .  S
Cu897       N907   2.081       .  S
Cu898       N900   2.086   1_655  S
Cu898       N906   2.086       .  S
N899        N900   1.324       .  A
N899        C903   1.348       .  A
N900        C901   1.347       .  A
C901        C902   1.383       .  A
C901        H904   1.082       .  S
C902        C903   1.383       .  A
C902       C1248   1.471       .  S
C903        H905   1.082       .  S
N906        N907   1.323       .  A
N906        C910   1.348       .  A
N907        C908   1.346       .  A
C908        C909   1.386       .  A
C908        H911   1.081       .  S
C909        C910   1.386       .  A
C909       C1447   1.494       .  S
C910        H912   1.081       .  S
N913        N914   1.320       .  A
N913        C917   1.344       .  A
N913       Cu921   2.078       .  S
N914        C915   1.348       .  A
N914       Cu920   2.079       .  S
C915        C916   1.389       .  A
C915        H918   1.081       .  S
C916        C917   1.388       .  A
C916       C1422   1.499       .  S
C917        H919   1.081       .  S
Cu920       N923   2.080       .  S
Cu921       N931   2.078       .  S
Cu922       N924   2.087       .  S
Cu922       N930   2.087       .  S
N923        N924   1.324       .  A
N923        C927   1.344       .  A
N924        C925   1.350       .  A
C925        C926   1.385       .  A
C925        H928   1.082       .  S
C926        C927   1.380       .  A
C926       C1305   1.469       .  S
C927        H929   1.082       .  S
N930        N931   1.322       .  A
N930        C934   1.346       .  A
N931        C932   1.345       .  A
C932        C933   1.386       .  A
C932        H935   1.082       .  S
C933        C934   1.390       .  A
C933       C1405   1.498       .  S
C934        H936   1.081       .  S
N937        N938   1.321       .  A
N937        C941   1.348       .  A
N937       Cu945   2.082       .  S
N938        C939   1.346       .  A
N938       Cu944   2.078       .  S
C939        C940   1.386       .  A
C939        H942   1.081       .  S
C940        C941   1.386       .  A
C940       C1419   1.493       .  S
C941        H943   1.081       .  S
Cu944       N947   2.078       .  S
Cu945       N955   2.083       .  S
Cu946       N948   2.092       .  S
Cu946       N954   2.093       .  S
N947        N948   1.324       .  A
N947        C951   1.345       .  A
N948        C949   1.349       .  A
C949        C950   1.385       .  A
C949        H952   1.082       .  S
C950        C951   1.381       .  A
C950       C1164   1.467       .  S
C951        H953   1.083       .  S
N954        N955   1.324       .  A
N954        C958   1.350       .  A
N955        C956   1.345       .  A
C956        C957   1.385       .  A
C956        H959   1.082       .  S
C957        C958   1.389       .  A
C957       C1478   1.498       .  S
C958        H960   1.081       .  S
N961        N962   1.322       .  A
N961        C965   1.347       .  A
N961       Cu969   2.084       .  S
N962        C963   1.345       .  A
N962       Cu968   2.082       .  S
C963        C964   1.388       .  A
C963        H966   1.081       .  S
C964        C965   1.389       .  A
C964       C1450   1.501       .  S
C965        H967   1.081       .  S
Cu968       N971   2.081       .  S
Cu969       N979   2.084       .  S
Cu970       N972   2.072       .  S
Cu970       N978   2.073       .  S
N971        N972   1.322       .  A
N971        C975   1.345       .  A
N972        C973   1.345       .  A
C973        C974   1.381       .  A
C973        H976   1.083       .  S
C974        C975   1.383       .  A
C974       C1194   1.464       .  S
C975        H977   1.083       .  S
N978        N979   1.323       .  A
N978        C982   1.346       .  A
N979        C980   1.347       .  A
C980        C981   1.384       .  A
C980        H983   1.082       .  S
C981        C982   1.382       .  A
C981       C1408   1.486       .  S
C982        H984   1.081       .  S
N985        N986   1.321       .  A
N985        C989   1.344       .  A
N985       Cu993   2.078       .  S
N986        C987   1.346       .  A
N986       Cu992   2.075       .  S
C987        C988   1.388       .  A
C987        H990   1.082       .  S
C988        C989   1.388       .  A
C988       C1436   1.498       .  S
C989        H991   1.082       .  S
Cu992       N995   2.074       .  S
Cu993      N1003   2.078       .  S
Cu994       N996   2.067       .  S
Cu994      N1002   2.067       .  S
N995        N996   1.323       .  A
N995        C999   1.346       .  A
N996        C997   1.342       .  A
C997        C998   1.377       .  A
C997       H1000   1.082       .  S
C998        C999   1.381       .  A
C998       C1208   1.456       .  S
C999       H1001   1.082       .  S
N1002      N1003   1.321       .  A
N1002      C1006   1.345       .  A
N1003      C1004   1.344       .  A
C1004      C1005   1.387       .  A
C1004      H1007   1.082       .  S
C1005      C1006   1.385       .  A
C1005      C1464   1.492       .  S
C1006      H1008   1.082       .  S
N1009      N1010   1.323       .  A
N1009      C1013   1.345       .  A
N1009     Cu1017   2.078       .  S
N1010      C1011   1.347       .  A
N1010     Cu1016   2.081       .  S
C1011      C1012   1.385       .  A
C1011      H1014   1.081       .  S
C1012      C1013   1.383       .  A
C1012      C1377   1.488       .  S
C1013      H1015   1.082       .  S
Cu1016     N1019   2.080       .  S
Cu1017     N1027   2.078       .  S
Cu1018     N1020   2.071       .  S
Cu1018     N1026   2.071       .  S
N1019      N1020   1.323       .  A
N1019      C1023   1.346       .  A
N1020      C1021   1.345       .  A
C1021      C1022   1.380       .  A
C1021      H1024   1.082       .  S
C1022      C1023   1.382       .  A
C1022      C1291   1.462       .  S
C1023      H1025   1.082       .  S
N1026      N1027   1.321       .  A
N1026      C1030   1.345       .  A
N1027      C1028   1.345       .  A
C1028      C1029   1.388       .  A
C1028      H1031   1.082       .  S
C1029      C1030   1.387       .  A
C1029      C1391   1.496       .  S
C1030      H1032   1.082       .  S
N1033      N1034   1.320       .  A
N1033      C1037   1.343       .  A
N1033     Cu1041   2.065       .  S
N1034      C1035   1.346       .  A
N1034     Cu1040   2.076       .  S
C1035      C1036   1.387       .  A
C1035      H1038   1.081       .  S
C1036      C1037   1.384       .  A
C1036      C1349   1.490       .  S
C1037      H1039   1.082       .  S
Cu1040     N1043   2.076       .  S
Cu1041     N1051   2.065       .  S
Cu1042     N1044   2.076       .  S
Cu1042     N1050   2.076       .  S
N1043      N1044   1.324       .  A
N1043      C1047   1.344       .  A
N1044      C1045   1.347       .  A
C1045      C1046   1.382       .  A
C1045      H1048   1.083       .  S
C1046      C1047   1.381       .  A
C1046      C1278   1.465   1_554  S
C1047      H1049   1.082   1_554  S
N1050      N1051   1.322       .  A
N1050      C1054   1.346       .  A
N1051      C1052   1.341       .  A
C1052      C1053   1.381       .  A
C1052      H1055   1.082       .  S
C1053      C1054   1.386       .  A
C1053      C1366   1.486       .  S
C1054      H1056   1.081       .  S
N1057      N1058   1.321       .  A
N1057      C1061   1.344       .  A
N1057     Cu1065   2.069       .  S
N1058      C1059   1.346       .  A
N1058     Cu1064   2.072       .  S
C1059      C1060   1.384       .  A
C1059      H1062   1.081       .  S
C1060      C1061   1.383       .  A
C1060      C1338   1.486       .  S
C1061      H1063   1.082       .  S
Cu1064     N1067   2.072       .  S
Cu1065     N1075   2.070       .  S
Cu1066     N1068   2.084       .  S
Cu1066     N1074   2.084       .  S
N1067      N1068   1.323       .  A
N1067      C1071   1.343       .  A
N1068      C1069   1.348       .  A
C1069      C1070   1.383       .  A
C1069      H1072   1.083       .  S
C1070      C1071   1.380       .  A
C1070      C1249   1.463       .  S
C1071      H1073   1.083       .  S
N1074      N1075   1.323       .  A
N1074      C1078   1.347       .  A
N1075      C1076   1.344       .  A
C1076      C1077   1.383       .  A
C1076      H1079   1.082       .  S
C1077      C1078   1.386       .  A
C1077      C1321   1.489       .  S
C1078      H1080   1.081       .  S
N1081      N1082   1.320       .  A
N1081      C1085   1.344       .  A
N1081     Cu1089   2.066       .  S
N1082      C1083   1.345       .  A
N1082     Cu1088   2.077       .  S
C1083      C1084   1.388       .  A
C1083      H1086   1.081       .  S
C1084      C1085   1.385       .  A
C1084      C1324   1.493       .  S
C1085      H1087   1.082       .  S
Cu1088     N1091   2.078       .  S
Cu1089     N1099   2.066       .  S
Cu1090     N1092   2.081       .  S
Cu1090     N1098   2.081       .  S
N1091      N1092   1.324       .  A
N1091      C1095   1.345       .  A
N1092      C1093   1.347       .  A
C1093      C1094   1.382       .  A
C1093      H1096   1.082       .  S
C1094      C1095   1.381       .  A
C1094      C1192   1.465       .  S
C1095      H1097   1.082       .  S
N1098      N1099   1.322       .  A
N1098      C1102   1.347       .  A
N1099      C1100   1.342       .  A
C1100      C1101   1.382       .  A
C1100      H1103   1.081       .  S
C1101      C1102   1.387       .  A
C1101      C1363   1.487       .  S
C1102      H1104   1.081       .  S
N1105      N1106   1.321       .  A
N1105      C1109   1.344       .  A
N1105     Cu1113   2.072       .  S
N1106      C1107   1.344       .  A
N1106     Cu1112   2.067       .  S
C1107      C1108   1.384       .  A
C1107      H1110   1.081       .  S
C1108      C1109   1.385       .  A
C1108      C1335   1.488       .  S
C1109      H1111   1.081       .  S
Cu1112     N1115   2.067       .  S
Cu1113     N1123   2.072       .  S
Cu1114     N1116   2.067       .  S
Cu1114     N1122   2.068       .  S
N1115      N1116   1.322       .  A
N1115      C1119   1.342       .  A
N1116      C1117   1.345       .  A
C1117      C1118   1.380       .  A
C1117      H1120   1.082       .  S
C1118      C1119   1.379       .  A
C1118      C1179   1.460       .  S
C1119      H1121   1.083       .  S
N1122      N1123   1.322       .  A
N1122      C1126   1.345       .  A
N1123      C1124   1.344       .  A
C1124      C1125   1.382       .  A
C1124      H1127   1.081       .  S
C1125      C1126   1.383       .  A
C1125      C1380   1.485       .  S
C1126      H1128   1.081       .  S
N1129      N1130   1.321       .  A
N1129      C1133   1.344       .  A
N1129     Cu1137   2.070       .  S
N1130      C1131   1.346       .  A
N1130     Cu1136   2.079       .  S
C1131      C1132   1.387       .  A
C1131      H1134   1.085       .  S
C1132      C1133   1.385       .  A
C1132      C1394   1.493       .  S
C1133      H1135   1.084       .  S
Cu1136     N1139   2.080       .  S
Cu1137     N1147   2.070       .  S
Cu1138     N1140   2.078       .  S
Cu1138     N1146   2.078       .  S
N1139      N1140   1.324       .  A
N1139      C1143   1.346       .  A
N1140      C1141   1.346       .  A
C1141      C1142   1.381       .  A
C1141      H1144   1.083       .  S
C1142      C1143   1.382       .  A
C1142      C1166   1.467       .  S
C1143      H1145   1.082       .  S
N1146      N1147   1.322       .  A
N1146      C1150   1.347       .  A
N1147      C1148   1.342       .  A
C1148      C1149   1.383       .  A
C1148      H1151   1.082       .  S
C1149      C1150   1.388       .  A
C1149      C1352   1.491       .  S
C1150      H1152   1.082       .  S
O1153     Cu1161   2.006       .  S
O1153      C1163   1.276       .  A
O1154     Cu1161   2.033       .  S
O1154      C1164   1.280       .  A
O1155     Cu1161   2.009       .  S
O1155      C1165   1.276       .  A
O1156     Cu1161   2.018       .  S
O1156      C1166   1.279       .  A
O1157     Cu1162   2.006       .  S
O1157      C1166   1.277       .  A
O1158     Cu1162   2.019       .  S
O1158      C1165   1.279       .  A
O1159     Cu1162   1.998       .  S
O1159      C1164   1.275       .  A
O1160     Cu1162   2.009   1_556  S
O1160      C1163   1.276   1_556  A
Cu1161    Cu1162   2.377       .  S
O1167     Cu1175   2.020       .  S
O1167      C1177   1.278       .  A
O1168     Cu1175   2.006       .  S
O1168      C1178   1.276       .  A
O1169     Cu1175   2.014       .  S
O1169      C1179   1.276       .  A
O1170     Cu1175   2.004       .  S
O1170      C1180   1.276       .  A
O1171     Cu1176   2.013       .  S
O1171      C1180   1.277       .  A
O1172     Cu1176   1.994       .  S
O1172      C1179   1.275       .  A
O1173     Cu1176   2.024       .  S
O1173      C1178   1.279       .  A
O1174     Cu1176   2.002       .  S
O1174      C1177   1.276       .  A
Cu1175    Cu1176   2.378       .  S
O1181     Cu1189   2.003       .  S
O1181      C1191   1.276       .  A
O1182     Cu1189   2.021       .  S
O1182      C1192   1.279       .  A
O1183     Cu1189   2.020       .  S
O1183      C1193   1.278       .  A
O1184     Cu1189   1.997       .  S
O1184      C1194   1.275       .  A
O1185     Cu1190   2.025       .  S
O1185      C1194   1.278       .  A
O1186     Cu1190   2.003       .  S
O1186      C1193   1.276       .  A
O1187     Cu1190   2.003       .  S
O1187      C1192   1.276       .  A
O1188     Cu1190   2.016       .  S
O1188      C1191   1.276       .  A
Cu1189    Cu1190   2.377       .  S
O1195     Cu1203   2.001       .  S
O1195      C1205   1.276       .  A
O1196     Cu1203   2.015       .  S
O1196      C1206   1.278       .  A
O1197     Cu1203   2.011       .  S
O1197      C1207   1.277       .  A
O1198     Cu1203   1.989       .  S
O1198      C1208   1.274       .  A
O1199     Cu1204   2.013       .  S
O1199      C1208   1.277       .  A
O1200     Cu1204   1.999       .  S
O1200      C1207   1.276       .  A
O1201     Cu1204   2.008       .  S
O1201      C1206   1.277       .  A
O1202     Cu1204   2.026       .  S
O1202      C1205   1.279       .  A
Cu1203    Cu1204   2.379       .  S
O1209     Cu1217   2.021       .  S
O1209      C1219   1.277       .  A
O1210     Cu1217   2.005   1_565  S
O1210      C1220   1.276       .  A
O1211     Cu1217   2.017       .  S
O1211      C1221   1.278   1_545  A
O1212     Cu1217   2.007       .  S
O1212      C1222   1.276   1_545  A
O1213     Cu1218   2.009       .  S
O1213      C1222   1.277       .  A
O1214     Cu1218   2.011       .  S
O1214      C1221   1.277       .  A
O1215     Cu1218   2.021       .  S
O1215      C1220   1.278       .  A
O1216     Cu1218   2.003       .  S
O1216      C1219   1.275   1_565  A
Cu1217    Cu1218   2.377   1_545  S
O1223     Cu1231   2.032       .  S
O1223      C1233   1.279       .  A
O1224     Cu1231   2.017       .  S
O1224      C1234   1.278       .  A
O1225     Cu1231   1.991       .  S
O1225      C1235   1.274       .  A
O1226     Cu1231   2.010       .  S
O1226      C1236   1.276       .  A
O1227     Cu1232   2.004       .  S
O1227      C1236   1.277       .  A
O1228     Cu1232   2.029       .  S
O1228      C1235   1.280       .  A
O1229     Cu1232   2.023       .  S
O1229      C1234   1.278       .  A
O1230     Cu1232   2.004       .  S
O1230      C1233   1.275       .  A
Cu1231    Cu1232   2.377       .  S
O1237     Cu1245   2.008       .  S
O1237      C1247   1.276   1_545  A
O1238     Cu1245   2.020       .  S
O1238      C1248   1.278       .  A
O1239     Cu1245   2.028       .  S
O1239      C1249   1.279       .  A
O1240     Cu1245   2.005       .  S
O1240      C1250   1.276   1_545  A
O1241     Cu1246   2.009       .  S
O1241      C1250   1.275   1_545  A
O1242     Cu1246   1.995       .  S
O1242      C1249   1.275       .  A
O1243     Cu1246   2.019       .  S
O1243      C1248   1.278       .  A
O1244     Cu1246   2.023       .  S
O1244      C1247   1.277   1_545  A
Cu1245    Cu1246   2.377       .  S
O1251     Cu1259   1.992       .  S
O1251      C1261   1.275       .  A
O1252     Cu1259   2.007       .  S
O1252      C1262   1.275       .  A
O1253     Cu1259   2.009       .  S
O1253      C1263   1.275       .  A
O1254     Cu1259   1.997       .  S
O1254      C1264   1.276       .  A
O1255     Cu1260   2.017       .  S
O1255      C1264   1.278       .  A
O1256     Cu1260   2.001       .  S
O1256      C1263   1.275       .  A
O1257     Cu1260   2.006       .  S
O1257      C1262   1.277       .  A
O1258     Cu1260   2.022       .  S
O1258      C1261   1.279       .  A
Cu1259    Cu1260   2.379       .  S
O1265     Cu1273   2.019       .  S
O1265      C1275   1.276       .  A
O1266     Cu1273   2.007       .  S
O1266      C1276   1.276       .  A
O1267     Cu1273   2.010       .  S
O1267      C1277   1.278       .  A
O1268     Cu1273   2.010       .  S
O1268      C1278   1.277       .  A
O1269     Cu1274   2.008       .  S
O1269      C1278   1.278       .  A
O1270     Cu1274   2.008       .  S
O1270      C1277   1.277       .  A
O1271     Cu1274   2.028       .  S
O1271      C1276   1.279       .  A
O1272     Cu1274   2.007       .  S
O1272      C1275   1.276       .  A
Cu1273    Cu1274   2.376       .  S
O1279     Cu1287   2.033       .  S
O1279      C1289   1.280       .  A
O1280     Cu1287   2.016       .  S
O1280      C1290   1.277   1_556  A
O1281     Cu1287   2.018       .  S
O1281      C1291   1.277   1_556  A
O1282     Cu1287   2.003       .  S
O1282      C1292   1.276       .  A
O1283     Cu1288   2.017       .  S
O1283      C1292   1.278       .  A
O1284     Cu1288   2.000       .  S
O1284      C1291   1.275   1_556  A
O1285     Cu1288   2.010       .  S
O1285      C1290   1.278   1_556  A
O1286     Cu1288   2.006       .  S
O1286      C1289   1.276       .  A
Cu1287    Cu1288   2.377       .  S
O1293     Cu1301   2.014       .  S
O1293      C1303   1.278   1_556  A
O1294     Cu1301   1.993       .  S
O1294      C1304   1.274       .  A
O1295     Cu1301   2.010       .  S
O1295      C1305   1.278   1_556  A
O1296     Cu1301   2.027       .  S
O1296      C1306   1.279       .  A
O1297     Cu1302   2.013       .  S
O1297      C1306   1.277       .  A
O1298     Cu1302   2.025       .  S
O1298      C1305   1.278   1_556  A
O1299     Cu1302   2.017       .  S
O1299      C1304   1.277       .  A
O1300     Cu1302   2.003       .  S
O1300      C1303   1.276   1_556  A
Cu1301    Cu1302   2.377       .  S
O1307     Cu1315   2.003       .  S
O1307      C1317   1.276       .  A
O1308     Cu1315   2.016       .  S
O1308      C1318   1.278       .  A
O1309     Cu1315   2.015       .  S
O1309      C1319   1.278       .  A
O1310     Cu1315   1.997       .  S
O1310      C1320   1.276       .  A
O1311     Cu1316   2.011       .  S
O1311      C1320   1.276       .  A
O1312     Cu1316   1.997       .  S
O1312      C1319   1.275       .  A
O1313     Cu1316   2.008       .  S
O1313      C1318   1.277       .  A
O1314     Cu1316   2.033       .  S
O1314      C1317   1.280       .  A
Cu1315    Cu1316   2.378       .  S
C1321      C1322   1.413       .  A
C1321      C1326   1.413       .  A
C1322      C1323   1.412       .  A
C1322      C1327   1.451       .  S
C1323      C1324   1.416       .  A
C1323      C1330   1.451       .  S
C1324      C1325   1.416       .  A
C1325      C1326   1.411       .  A
C1325      C1328   1.451       .  S
C1326      C1329   1.452       .  S
C1327      N1334   1.157       .  T
C1328      N1333   1.157       .  T
C1329      N1331   1.157       .  T
C1330      N1332   1.157       .  T
C1335      C1336   1.416       .  A
C1335      C1340   1.414       .  A
C1336      C1337   1.411       .  A
C1336      C1341   1.451       .  S
C1337      C1338   1.412       .  A
C1337      C1344   1.451       .  S
C1338      C1339   1.414       .  A
C1339      C1340   1.410       .  A
C1339      C1342   1.452       .  S
C1340      C1343   1.451       .  S
C1341      N1348   1.157       .  T
C1342      N1347   1.157       .  T
C1343      N1345   1.157       .  T
C1344      N1346   1.157       .  T
C1349      C1350   1.415       .  A
C1349      C1354   1.413       .  A
C1350      C1351   1.412       .  A
C1350      C1355   1.452       .  S
C1351      C1352   1.415       .  A
C1351      C1358   1.451       .  S
C1352      C1353   1.415       .  A
C1353      C1354   1.411       .  A
C1353      C1356   1.451       .  S
C1354      C1357   1.451       .  S
C1355      N1362   1.158       .  T
C1356      N1361   1.157   1_554  T
C1357      N1359   1.157       .  T
C1358      N1360   1.157       .  T
C1363      C1364   1.414       .  A
C1363      C1368   1.413       .  A
C1364      C1365   1.411       .  A
C1364      C1369   1.452       .  S
C1365      C1366   1.414       .  A
C1365      C1372   1.451       .  S
C1366      C1367   1.413       .  A
C1367      C1368   1.411       .  A
C1367      C1370   1.451       .  S
C1368      C1371   1.451       .  S
C1369      N1376   1.157       .  T
C1370      N1375   1.157       .  T
C1371      N1373   1.157       .  T
C1372      N1374   1.157       .  T
C1377      C1378   1.413       .  A
C1377      C1382   1.415       .  A
C1378      C1379   1.411       .  A
C1378      C1383   1.451       .  S
C1379      C1380   1.414       .  A
C1379      C1386   1.451       .  S
C1380      C1381   1.411       .  A
C1381      C1382   1.411       .  A
C1381      C1384   1.452       .  S
C1382      C1385   1.450       .  S
C1383      N1390   1.157       .  T
C1384      N1389   1.157       .  T
C1385      N1387   1.157       .  T
C1386      N1388   1.157       .  T
C1391      C1392   1.416       .  A
C1391      C1396   1.417       .  A
C1392      C1393   1.413       .  A
C1392      C1397   1.451       .  S
C1393      C1394   1.414       .  A
C1393      C1400   1.451       .  S
C1394      C1395   1.414       .  A
C1395      C1396   1.412       .  A
C1395      C1398   1.452       .  S
C1396      C1399   1.451       .  S
C1397      N1404   1.157       .  T
C1398      N1403   1.157       .  T
C1399      N1401   1.158       .  T
C1400      N1402   1.157       .  T
C1405      C1406   1.418       .  A
C1405      C1410   1.420       .  A
C1406      C1407   1.413       .  A
C1406      C1411   1.449       .  S
C1407      C1408   1.411       .  A
C1407      C1414   1.452       .  S
C1408      C1409   1.409       .  A
C1409      C1410   1.413       .  A
C1409      C1412   1.451       .  S
C1410      C1413   1.451       .  S
C1411      N1418   1.157       .  T
C1412      N1417   1.157       .  T
C1413      N1415   1.157       .  T
C1414      N1416   1.157       .  T
C1419      C1420   1.413       .  A
C1419      C1424   1.413       .  A
C1420      C1421   1.412       .  A
C1420      C1425   1.451       .  S
C1421      C1422   1.417       .  A
C1421      C1428   1.451       .  S
C1422      C1423   1.418       .  A
C1423      C1424   1.416       .  A
C1423      C1426   1.451       .  S
C1424      C1427   1.451       .  S
C1425      N1432   1.157       .  T
C1426      N1431   1.158       .  T
C1427      N1429   1.157       .  T
C1428      N1430   1.157       .  T
C1433      C1434   1.412       .  A
C1433      C1438   1.412       .  A
C1434      C1435   1.411       .  A
C1434      C1439   1.452       .  S
C1435      C1436   1.419       .  A
C1435      C1442   1.451       .  S
C1436      C1437   1.418       .  A
C1437      C1438   1.414       .  A
C1437      C1440   1.451       .  S
C1438      C1441   1.452       .  S
C1439      N1446   1.157   1_455  T
C1440      N1445   1.158       .  T
C1441      N1443   1.158       .  T
C1442      N1444   1.158       .  T
C1447      C1448   1.413       .  A
C1447      C1452   1.413       .  A
C1448      C1449   1.414       .  A
C1448      C1453   1.452       .  S
C1449      C1450   1.418       .  A
C1449      C1456   1.451       .  S
C1450      C1451   1.418       .  A
C1451      C1452   1.414       .  A
C1451      C1454   1.452       .  S
C1452      C1455   1.451       .  S
C1453      N1460   1.157       .  T
C1454      N1459   1.158       .  T
C1455      N1457   1.157       .  T
C1456      N1458   1.158       .  T
C1461      C1462   1.412       .  A
C1461      C1466   1.413       .  A
C1462      C1463   1.410       .  A
C1462      C1467   1.452   1_455  S
C1463      C1464   1.417       .  A
C1463      C1470   1.451       .  S
C1464      C1465   1.415       .  A
C1465      C1466   1.413       .  A
C1465      C1468   1.451       .  S
C1466      C1469   1.451       .  S
C1467      N1474   1.157       .  T
C1468      N1473   1.157       .  T
C1469      N1471   1.157       .  T
C1470      N1472   1.157       .  T
C1475      C1476   1.417       .  A
C1475      C1480   1.416       .  A
C1476      C1477   1.416       .  A
C1476      C1481   1.451       .  S
C1477      C1478   1.415       .  A
C1477      C1484   1.451       .  S
C1478      C1479   1.416       .  A
C1479      C1480   1.414       .  A
C1479      C1482   1.452       .  S
C1480      C1483   1.451       .  S
C1481      N1488   1.157       .  T
C1482      N1487   1.157       .  T
C1483      N1485   1.157       .  T
C1484      N1486   1.157       .  T
C1489      C1490   1.416       .  A
C1489      C1494   1.416       .  A
C1490      C1491   1.414       .  A
C1490      C1495   1.451       .  S
C1491      C1492   1.417       .  A
C1491      C1498   1.452       .  S
C1492      C1493   1.417   1_455  A
C1493      C1494   1.415   1_655  A
C1493      C1496   1.451       .  S
C1494      C1497   1.451   1_455  S
C1495      N1502   1.157       .  T
C1496      N1501   1.157       .  T
C1497      N1499   1.157       .  T
C1498      N1500   1.157       .  T
C1503      C1504   1.417       .  A
C1503      C1508   1.418       .  A
C1504      C1505   1.410       .  A
C1504      C1509   1.450       .  S
C1505      C1506   1.410       .  A
C1505      C1512   1.452       .  S
C1506      C1507   1.410       .  A
C1507      C1508   1.412       .  A
C1507      C1510   1.452   1_554  S
C1508      C1511   1.450       .  S
C1509      N1516   1.157       .  T
C1510      N1515   1.157       .  T
C1511      N1513   1.157   1_554  T
C1512      N1514   1.157       .  T
C1517      C1518   1.414       .  A
C1517      C1522   1.416       .  A
C1518      C1519   1.410       .  A
C1518      C1523   1.452       .  S
C1519      C1520   1.414       .  A
C1519      C1526   1.451       .  S
C1520      C1521   1.414       .  A
C1521      C1522   1.411       .  A
C1521      C1524   1.452   1_565  S
C1522      C1525   1.451       .  S
C1523      N1530   1.157       .  T
C1524      N1529   1.157       .  T
C1525      N1527   1.157       .  T
C1526      N1528   1.157       .  T
C1531      C1532   1.420       .  A
C1531      C1536   1.418       .  A
C1532      C1533   1.413       .  A
C1532      C1537   1.450       .  S
C1533      C1534   1.409       .  A
C1533      C1540   1.452       .  S
C1534      C1535   1.411       .  A
C1535      C1536   1.411       .  A
C1535      C1538   1.452       .  S
C1536      C1539   1.451       .  S
C1537      N1544   1.157       .  T
C1538      N1543   1.157       .  T
C1539      N1541   1.157   1_455  T
C1540      N1542   1.157       .  T
C1545      C1546   1.415       .  A
C1545      C1550   1.415       .  A
C1546      C1547   1.411       .  A
C1546      C1551   1.451       .  S
C1547      C1548   1.411       .  A
C1547      C1554   1.451   1_565  S
C1548      C1549   1.414       .  A
C1549      C1550   1.411       .  A
C1549      C1552   1.452       .  S
C1550      C1553   1.451       .  S
C1551      N1558   1.157   1_565  T
C1552      N1557   1.157       .  T
C1553      N1555   1.157       .  T
C1554      N1556   1.157       .  T
C1559      C1560   1.413       .  A
C1559      C1564   1.413       .  A
C1560      C1561   1.413       .  A
C1560      C1565   1.451       .  S
C1561      C1562   1.416       .  A
C1561      C1568   1.451       .  S
C1562      C1563   1.416       .  A
C1563      C1564   1.413       .  A
C1563      C1566   1.451       .  S
C1564      C1567   1.452       .  S
C1565      N1572   1.157       .  T
C1566      N1571   1.157   1_554  T
C1567      N1569   1.157       .  T
C1568      N1570   1.157       .  T
C1573      C1574   1.414       .  A
C1573      C1578   1.412       .  A
C1574      C1575   1.414       .  A
C1574      C1579   1.451       .  S
C1575      C1576   1.414       .  A
C1575      C1582   1.450       .  S
C1576      C1577   1.417       .  A
C1577      C1578   1.413       .  A
C1577      C1580   1.451       .  S
C1578      C1581   1.451       .  S
C1579      N1586   1.157       .  T
C1580      N1585   1.157       .  T
C1581      N1583   1.157       .  T
C1582      N1584   1.157       .  T
C1587      C1588   1.414       .  A
C1587      C1592   1.414       .  A
C1588      C1589   1.415   1_554  A
C1588      C1593   1.451   1_554  S
C1589      C1590   1.417   1_556  A
C1589      C1596   1.451       .  S
C1590      C1591   1.417       .  A
C1591      C1592   1.410       .  A
C1591      C1594   1.452       .  S
C1592      C1595   1.453       .  S
C1593      N1600   1.157       .  T
C1594      N1599   1.158       .  T
C1595      N1597   1.157       .  T
C1596      N1598   1.157       .  T
C1601      C1602   1.415       .  A
C1601      C1606   1.413       .  A
C1602      C1603   1.412       .  A
C1602      C1607   1.451       .  S
C1603      C1604   1.415       .  A
C1603      C1610   1.452       .  S
C1604      C1605   1.416       .  A
C1605      C1606   1.414       .  A
C1605      C1608   1.451       .  S
C1606      C1609   1.451       .  S
C1607      N1614   1.157       .  T
C1608      N1613   1.157       .  T
C1609      N1611   1.157       .  T
C1610      N1612   1.157       .  T
C1615      C1616   1.415       .  A
C1615      C1620   1.416       .  A
C1616      C1617   1.415       .  A
C1616      C1621   1.451       .  S
C1617      C1618   1.417       .  A
C1617      C1624   1.452       .  S
C1618      C1619   1.417       .  A
C1619      C1620   1.413       .  A
C1619      C1622   1.452       .  S
C1620      C1623   1.452       .  S
C1621      N1628   1.157       .  T
C1622      N1627   1.158       .  T
C1623      N1625   1.157       .  T
C1624      N1626   1.158       .  T
C1629      C1630   1.414       .  A
C1629      C1634   1.412   1_554  A
C1630      C1631   1.411       .  A
C1630      C1635   1.452       .  S
C1631      C1632   1.412       .  A
C1631      C1638   1.449       .  S
C1632      C1633   1.416       .  A
C1633      C1634   1.411   1_554  A
C1633      C1636   1.451   1_554  S
C1634      C1637   1.452       .  S
C1635      N1642   1.157       .  T
C1636      N1641   1.157       .  T
C1637      N1639   1.157       .  T
C1638      N1640   1.156       .  T
C1643      C1644   1.413       .  A
C1643      C1648   1.414       .  A
C1644      C1645   1.413       .  A
C1644      C1649   1.451       .  S
C1645      C1646   1.415       .  A
C1645      C1652   1.452       .  S
C1646      C1647   1.414       .  A
C1647      C1648   1.412       .  A
C1647      C1650   1.451       .  S
C1648      C1651   1.451       .  S
C1649      N1656   1.157       .  T
C1650      N1655   1.157       .  T
C1651      N1653   1.157       .  T
C1652      N1654   1.157       .  T
C1657      C1658   1.413       .  A
C1657      C1662   1.412       .  A
C1658      C1659   1.411       .  A
C1658      C1663   1.452       .  S
C1659      C1660   1.416       .  A
C1659      C1666   1.452       .  S
C1660      C1661   1.417       .  A
C1661      C1662   1.411       .  A
C1661      C1664   1.451       .  S
C1662      C1665   1.452       .  S
C1663      N1670   1.157       .  T
C1664      N1669   1.157       .  T
C1665      N1667   1.157       .  T
C1666      N1668   1.157       .  T
C1671      C1672   1.414       .  A
C1671      C1676   1.414   1_455  A
C1672      C1673   1.412       .  A
C1672      C1677   1.451       .  S
C1673      C1674   1.416       .  A
C1673      C1680   1.452       .  S
C1674      C1675   1.418   1_455  A
C1675      C1676   1.411       .  A
C1675      C1678   1.452       .  S
C1676      C1679   1.452       .  S
C1677      N1684   1.157       .  T
C1678      N1683   1.158       .  T
C1679      N1681   1.157       .  T
C1680      N1682   1.157       .  T
C1685      C1686   1.412       .  A
C1685      C1690   1.412       .  A
C1686      C1687   1.414   1_565  A
C1686      C1691   1.451   1_565  S
C1687      C1688   1.415   1_545  A
C1687      C1694   1.450       .  S
C1688      C1689   1.417       .  A
C1689      C1690   1.411       .  A
C1689      C1692   1.452       .  S
C1690      C1693   1.452       .  S
C1691      N1698   1.157       .  T
C1692      N1697   1.157       .  T
C1693      N1695   1.157       .  T
C1694      N1696   1.157       .  T
C1699      C1700   1.416       .  A
C1699      C1704   1.415       .  A
C1700      C1701   1.409       .  A
C1700      C1705   1.452       .  S
C1701      C1702   1.414       .  A
C1701      C1708   1.453       .  S
C1702      C1703   1.414       .  A
C1703      C1704   1.414       .  A
C1703      C1706   1.451       .  S
C1704      C1707   1.451       .  S
C1705      N1712   1.157       .  T
C1706      N1711   1.157       .  T
C1707      N1709   1.157       .  T
C1708      N1710   1.157       .  T
C1713      C1714   1.414   1_655  A
C1713      C1718   1.414       .  A
C1714      C1715   1.412       .  A
C1714      C1719   1.450       .  S
C1715      C1716   1.414   1_455  A
C1715      C1722   1.451       .  S
C1716      C1717   1.413       .  A
C1717      C1718   1.407       .  A
C1717      C1720   1.452       .  S
C1718      C1721   1.452       .  S
C1719      N1726   1.157       .  T
C1720      N1725   1.157       .  T
C1721      N1723   1.157       .  T
C1722      N1724   1.157       .  T
C1727      C1728   1.411       .  A
C1727      C1732   1.412       .  A
C1728      C1729   1.410       .  A
C1728      C1733   1.451       .  S
C1729      C1730   1.418   1_565  A
C1729      C1736   1.451       .  S
C1730      C1731   1.419       .  A
C1731      C1732   1.414   1_545  A
C1731      C1734   1.451       .  S
C1732      C1735   1.451   1_565  S
C1733      N1740   1.157       .  T
C1734      N1739   1.157       .  T
C1735      N1737   1.157       .  T
C1736      N1738   1.157       .  T
C1741      C1742   1.411       .  A
C1741      C1746   1.412       .  A
C1742      C1743   1.415       .  A
C1742      C1747   1.451       .  S
C1743      C1744   1.420       .  A
C1743      C1750   1.451       .  S
C1744      C1745   1.419       .  A
C1745      C1746   1.414       .  A
C1745      C1748   1.450       .  S
C1746      C1749   1.452       .  S
C1747      N1754   1.157       .  T
C1748      N1753   1.157       .  T
C1749      N1751   1.157       .  T
C1750      N1752   1.157       .  T
C1755      C1756   1.412       .  A
C1755      C1760   1.413       .  A
C1756      C1757   1.410       .  A
C1756      C1761   1.452       .  S
C1757      C1758   1.415       .  A
C1757      C1764   1.451       .  S
C1758      C1759   1.415       .  A
C1759      C1760   1.414       .  A
C1759      C1762   1.451       .  S
C1760      C1763   1.451       .  S
C1761      N1768   1.157       .  T
C1762      N1767   1.157       .  T
C1763      N1765   1.157       .  T
C1764      N1766   1.157       .  T
C1769      C1770   1.414       .  A
C1769      C1774   1.414       .  A
C1770      C1771   1.412       .  A
C1770      C1775   1.451       .  S
C1771      C1772   1.416       .  A
C1771      C1778   1.451       .  S
C1772      C1773   1.418       .  A
C1773      C1774   1.412       .  A
C1773      C1776   1.451       .  S
C1774      C1777   1.452       .  S
C1775      N1782   1.157   1_565  T
C1776      N1781   1.158       .  T
C1777      N1779   1.157       .  T
C1778      N1780   1.157       .  T
C1783      C1784   1.412       .  A
C1783      C1788   1.415       .  A
C1784      C1785   1.413       .  A
C1784      C1789   1.452       .  S
C1785      C1786   1.419       .  A
C1785      C1792   1.451       .  S
C1786      C1787   1.416       .  A
C1787      C1788   1.411       .  A
C1787      C1790   1.452       .  S
C1788      C1791   1.452       .  S
C1789      N1796   1.157       .  T
C1790      N1795   1.157       .  T
C1791      N1793   1.157       .  T
C1792      N1794   1.157       .  T
C1797      C1798   1.415       .  A
C1797      C1802   1.412       .  A
C1798      C1799   1.410       .  A
C1798      C1803   1.451       .  S
C1799      C1800   1.412       .  A
C1799      C1806   1.451       .  S
C1800      C1801   1.414       .  A
C1801      C1802   1.413       .  A
C1801      C1804   1.450       .  S
C1802      C1805   1.451       .  S
C1803      N1810   1.157       .  T
C1804      N1809   1.157       .  T
C1805      N1807   1.157       .  T
C1806      N1808   1.157       .  T
C1811      C1812   1.412       .  A
C1811      C1816   1.414       .  A
C1812      C1813   1.411       .  A
C1812      C1817   1.452       .  S
C1813      C1814   1.417       .  A
C1813      C1820   1.451       .  S
C1814      C1815   1.417       .  A
C1815      C1816   1.415       .  A
C1815      C1818   1.451   1_565  S
C1816      C1819   1.451       .  S
C1817      N1824   1.157       .  T
C1818      N1823   1.157       .  T
C1819      N1821   1.157   1_565  T
C1820      N1822   1.157       .  T
C1825      C1826   1.417       .  A
C1825      C1830   1.416       .  A
C1826      C1827   1.414       .  A
C1826      C1831   1.451       .  S
C1827      C1828   1.412       .  A
C1827      C1834   1.447       .  S
C1828      C1829   1.413       .  A
C1829      C1830   1.413       .  A
C1829      C1832   1.451       .  S
C1830      C1833   1.449       .  S
C1831      N1838   1.158       .  T
C1832      N1837   1.157       .  T
C1833      N1835   1.156       .  T
C1834      N1836   1.155       .  T
C1839      C1840   1.419       .  A
C1839      C1844   1.420       .  A
C1840      C1841   1.415       .  A
C1840      C1845   1.451       .  S
C1841      C1842   1.412       .  A
C1841      C1848   1.451       .  S
C1842      C1843   1.412       .  A
C1843      C1844   1.413       .  A
C1843      C1846   1.452       .  S
C1844      C1847   1.451       .  S
C1845      N1852   1.157       .  T
C1846      N1851   1.157       .  T
C1847      N1849   1.158       .  T
C1848      N1850   1.157       .  T
C1853      C1854   1.414       .  A
C1853      C1858   1.415       .  A
C1854      C1855   1.410       .  A
C1854      C1859   1.452       .  S
C1855      C1856   1.414       .  A
C1855      C1862   1.452       .  S
C1856      C1857   1.415       .  A
C1857      C1858   1.411       .  A
C1857      C1860   1.452       .  S
C1858      C1861   1.451       .  S
C1859      N1866   1.157       .  T
C1860      N1865   1.158       .  T
C1861      N1863   1.157       .  T
C1862      N1864   1.157       .  T
C1867      C1868   1.412       .  A
C1867      C1872   1.414       .  A
C1868      C1869   1.411       .  A
C1868      C1873   1.451       .  S
C1869      C1870   1.416       .  A
C1869      C1876   1.451       .  S
C1870      C1871   1.416       .  A
C1871      C1872   1.411       .  A
C1871      C1874   1.451       .  S
C1872      C1875   1.452       .  S
C1873      N1880   1.157       .  T
C1874      N1879   1.157       .  T
C1875      N1877   1.157       .  T
C1876      N1878   1.157       .  T
C1881      C1882   1.418       .  A
C1881      C1886   1.417       .  A
C1882      C1883   1.414       .  A
C1882      C1887   1.451       .  S
C1883      C1884   1.413       .  A
C1883      C1890   1.451       .  S
C1884      C1885   1.415       .  A
C1885      C1886   1.415       .  A
C1885      C1888   1.452       .  S
C1886      C1889   1.451       .  S
C1887      N1894   1.157       .  T
C1888      N1893   1.157       .  T
C1889      N1891   1.157       .  T
C1890      N1892   1.157       .  T
C1895      C1896   1.416       .  A
C1895      C1900   1.413       .  A
C1896      C1897   1.412       .  A
C1896      C1901   1.451       .  S
C1897      C1898   1.412       .  A
C1897      C1904   1.452       .  S
C1898      C1899   1.414       .  A
C1899      C1900   1.413       .  A
C1899      C1902   1.451       .  S
C1900      C1903   1.451       .  S
C1901      N1908   1.157       .  T
C1902      N1907   1.157       .  T
C1903      N1905   1.157       .  T
C1904      N1906   1.157       .  T
C1909      C1910   1.412   1_455  A
C1909      C1914   1.411       .  A
C1910      C1911   1.408   1_655  A
C1910      C1915   1.452       .  S
C1911      C1912   1.415       .  A
C1911      C1918   1.451   1_455  S
C1912      C1913   1.416       .  A
C1913      C1914   1.412       .  A
C1913      C1916   1.451       .  S
C1914      C1917   1.451       .  S
C1915      N1922   1.157       .  T
C1916      N1921   1.157       .  T
C1917      N1919   1.157       .  T
C1918      N1920   1.157       .  T
C1923      C1924   1.412       .  A
C1923      C1928   1.412       .  A
C1924      C1925   1.409       .  A
C1924      C1929   1.451       .  S
C1925      C1926   1.413       .  A
C1925      C1932   1.451       .  S
C1926      C1927   1.413       .  A
C1927      C1928   1.410       .  A
C1927      C1930   1.451       .  S
C1928      C1931   1.451       .  S
C1929      N1936   1.157       .  T
C1930      N1935   1.157       .  T
C1931      N1933   1.157       .  T
C1932      N1934   1.157       .  T
C1937      C1938   1.415       .  A
C1937      C1942   1.413   1_455  A
C1938      C1939   1.411       .  A
C1938      C1943   1.452       .  S
C1939      C1940   1.415       .  A
C1939      C1946   1.451       .  S
C1940      C1941   1.414   1_455  A
C1941      C1942   1.412       .  A
C1941      C1944   1.451       .  S
C1942      C1945   1.451       .  S
C1943      N1950   1.157       .  T
C1944      N1949   1.157       .  T
C1945      N1947   1.157       .  T
C1946      N1948   1.157       .  T
C1951      C1952   1.410       .  A
C1951      C1956   1.410       .  A
C1952      C1953   1.413       .  A
C1952      C1957   1.452       .  S
C1953      C1954   1.418       .  A
C1953      C1960   1.449       .  S
C1954      C1955   1.418       .  A
C1955      C1956   1.411       .  A
C1955      C1958   1.451       .  S
C1956      C1959   1.452       .  S
C1957      N1964   1.157       .  T
C1958      N1963   1.157       .  T
C1959      N1961   1.157       .  T
C1960      N1962   1.157       .  T
C1965      C1966   1.412       .  A
C1965      C1970   1.415       .  A
C1966      C1967   1.414       .  A
C1966      C1971   1.451       .  S
C1967      C1968   1.416       .  A
C1967      C1974   1.452       .  S
C1968      C1969   1.415       .  A
C1969      C1970   1.412       .  A
C1969      C1972   1.451       .  S
C1970      C1973   1.452       .  S
C1971      N1978   1.157       .  T
C1972      N1977   1.157       .  T
C1973      N1975   1.157       .  T
C1974      N1976   1.157       .  T
C1979      C1980   1.415       .  A
C1979      C1984   1.415       .  A
C1980      C1981   1.411       .  A
C1980      C1985   1.451       .  S
C1981      C1982   1.414       .  A
C1981      C1988   1.452       .  S
C1982      C1983   1.415       .  A
C1983      C1984   1.414       .  A
C1983      C1986   1.451       .  S
C1984      C1987   1.451       .  S
C1985      N1992   1.157       .  T
C1986      N1991   1.157       .  T
C1987      N1989   1.157       .  T
C1988      N1990   1.157       .  T
