geometry optimzed in LAMMPS
_audit_creation_date              2020-11-30 
_audit_creation_method            'lammps2cif' 
_symmetry_space_group_name_H-M    'P1' 
_symmetry_Int_Tables_number       1 
_symmetry_cell_setting            triclinic 
loop_ 
_symmetry_equiv_pos_as_xyz 
  x,y,z 
_cell_length_a                    34.02376288 
_cell_length_b                    28.820039485158855 
_cell_length_c                    34.014270134110966 
_cell_angle_alpha                 89.8545020633409 
_cell_angle_beta                  90.08689838007324 
_cell_angle_gamma                 90.10072607319175 
loop_ 
_atom_site_label 
_atom_site_type_symbol 
_atom_site_fract_x 
_atom_site_fract_y 
_atom_site_fract_z 
_atom_site_charge 
O1          O  0.44672273  0.15913876  0.15130386    -0.56300
C2          C  0.51227666  0.04952960  0.19958767     0.76400
O3          O  0.38566806  0.02461369  0.16138202    -0.57400
C4          C  0.40983094  0.16383484  0.14793554     0.76300
C5          C  0.46508922  0.04361546  0.07467005     0.78700
Cd6        Cd  0.44457997  0.07294779  0.15283966     1.37500
O7          O  0.49643683  0.08916824  0.20241554    -0.56300
O8          O  0.47948121  0.07996291  0.08978806    -0.55100
C9          C  0.38609229  0.02658726  0.19860178     0.78700
O10         O  0.44002046  0.02186680  0.09514258    -0.57400
O11         O  0.49766876  0.02240681  0.17429384    -0.55900
O12         O  0.38996930  0.12692131  0.14546114    -0.55900
O13         O  0.41437398  0.04827653  0.21425148    -0.55100
O14         O  0.19594836  0.84863997  0.33734344    -0.56300
C15         C  0.26143934  0.96000583  0.30004466     0.76400
O16         O  0.14656498  0.99339795  0.33261784    -0.57400
C17         C  0.16565520  0.84022107  0.35782339     0.76300
C18         C  0.22044611  0.96484987  0.42631843     0.78700
Cd19       Cd  0.19622383  0.93325730  0.34920493     1.37500
O20         O  0.25861294  0.91887794  0.31304264    -0.56300
O21         O  0.24011097  0.93537426  0.40715242    -0.55100
C22         C  0.13425431  0.97368738  0.30164969     0.78700
O23         O  0.18865836  0.97837404  0.41065153    -0.57400
O24         O  0.23493391  0.98800505  0.31045235    -0.55900
O25         O  0.15093331  0.87428429  0.37598242    -0.55900
O26         O  0.14972551  0.93490862  0.29393202    -0.55100
O27         O  0.23526891  0.08938624  0.68311649    -0.56300
C28         C  0.33058653  0.16934007  0.64470852     0.76400
O29         O  0.34407118  0.00969835  0.66661467    -0.57400
C30         C  0.23763093  0.05333335  0.70437636     0.76300
C31         C  0.27506833  0.04147134  0.57524507     0.78700
Cd32       Cd  0.30063465  0.07618766  0.65128570     1.37500
O33         O  0.30613793  0.15800503  0.67107611    -0.56300
O34         O  0.25433631  0.06903590  0.59531621    -0.55100
C35         C  0.36518487  0.03215727  0.69067855     0.78700
O36         O  0.30819601  0.03097119  0.58971572    -0.57400
O37         O  0.33933352  0.13847433  0.61983150    -0.55900
O38         O  0.26915753  0.03053921  0.70201803    -0.55900
O39         O  0.35727605  0.07462850  0.69518711    -0.55100
O40         O  0.04985023  0.85872192  0.83936632    -0.56300
C41         C  0.98599035  0.96439704  0.79516269     0.76400
O42         O  0.04738625  0.99721181  0.90506343    -0.57400
C43         C  0.08071216  0.85154776  0.85926462     0.76300
C44         C  0.11188904  0.98298339  0.80359101     0.78700
Cd45       Cd  0.04864962  0.94319889  0.84857853     1.37500
O46         O  0.99132191  0.92302364  0.80664173    -0.56300
O47         O  0.08958557  0.95145262  0.79056590    -0.55100
C48         C  0.01970789  0.97694416  0.92309576     0.78700
O49         O  0.10496559  0.99690494  0.83821761    -0.57400
O50         O  0.00819339  0.99488687  0.81000343    -0.55900
O51         O  0.09565427  0.88639091  0.87629012    -0.55900
O52         O  0.00578089  0.94098591  0.90692575    -0.55100
O53         O  0.49147998  0.42931976  0.69275729    -0.56300
C54         C  0.40164216  0.35306836  0.64438704     0.76400
O55         O  0.36891934  0.48945764  0.66565802    -0.57400
C56         C  0.49615505  0.47075126  0.70435664     0.76300
C57         C  0.45632854  0.48210553  0.57962787     0.78700
Cd58       Cd  0.43098957  0.44661450  0.65451067     1.37500
O59         O  0.43279559  0.36198681  0.66334132    -0.56300
O60         O  0.47153551  0.44699310  0.59595103    -0.55100
C61         C  0.36895760  0.48283461  0.70253100     0.78700
O62         O  0.42866900  0.50158621  0.59817254    -0.57400
O63         O  0.38515530  0.38727310  0.62790390    -0.55900
O64         O  0.47204542  0.50053193  0.69150711    -0.55900
O65         O  0.39755030  0.45999402  0.71619783    -0.55100
O66         O  0.24061569  0.59174855  0.81597350    -0.56300
C67         C  0.15296157  0.66920369  0.86412309     0.76400
O68         O  0.11889191  0.52997850  0.84756822    -0.57400
C69         C  0.24563438  0.54973674  0.80622326     0.76300
C70         C  0.21048376  0.54020745  0.93120801     0.78700
Cd71       Cd  0.18114039  0.57512783  0.85631339     1.37500
O72         O  0.18236859  0.65899336  0.84315638    -0.56300
O73         O  0.22458309  0.57593689  0.91476420    -0.55100
C74         C  0.11806419  0.53489484  0.81050348     0.78700
O75         O  0.18194606  0.52116393  0.91349153    -0.57400
O76         O  0.13770046  0.63637546  0.88362931    -0.55900
O77         O  0.22120939  0.52078785  0.81985635    -0.55900
O78         O  0.14549672  0.55858588  0.79551929    -0.55100
O79         O  0.05918272  0.65242469  0.33571595    -0.56300
C80         C  0.48668915  0.54356166  0.30335700     0.76400
O81         O  0.09733370  0.50646008  0.33863250    -0.57400
C82         C  0.08665767  0.66092272  0.35990318     0.76300
C83         C  0.02182058  0.54502481  0.43060529     0.78700
Cd84       Cd  0.05095549  0.57057095  0.35382890     1.37500
O85         O  0.48873912  0.58468999  0.31646020    -0.56300
O86         O  0.00758260  0.57861711  0.41128611    -0.55100
C87         C  0.11161194  0.52647559  0.30857709     0.78700
O88         O  0.05094550  0.52456402  0.41520854    -0.57400
O89         O  0.01389170  0.51660642  0.31394101    -0.55900
O90         O  0.09613405  0.62829603  0.38309680    -0.55900
O91         O  0.09966614  0.56727124  0.30210240    -0.55100
O92         O  0.29697241  0.35018083  0.15430997    -0.56300
C93         C  0.23337962  0.45569619  0.20582223     0.76400
O94         O  0.35885420  0.48532777  0.16422413    -0.57400
C95         C  0.33337712  0.34461154  0.14818932     0.76300
C96         C  0.27337390  0.46740419  0.07895220     0.78700
Cd97       Cd  0.29940712  0.43587727  0.15578830     1.37500
O98         O  0.24482085  0.41424301  0.20133156    -0.56300
O99         O  0.26243500  0.42900787  0.09335324    -0.55100
C100        C  0.36176701  0.47702135  0.20075934     0.78700
O101        O  0.29773128  0.49041343  0.09926764    -0.57400
O102        O  0.25230985  0.48661737  0.18741826    -0.55900
O103        O  0.35326531  0.38136978  0.14409601    -0.55900
O104        O  0.33520021  0.45192498  0.21582109    -0.55100
C105        C  0.14038876  0.50385069  0.28157161    -0.03800
C106        C  0.14147859  0.51690832  0.24131013    -0.00900
C107        C  0.17128332  0.50002977  0.21652942     0.04100
C108        C  0.19946919  0.46843885  0.23099845    -0.03800
C109        C  0.19651096  0.45215799  0.27011124    -0.00900
C110        C  0.16728849  0.47004568  0.29541303     0.04100
C111        C  0.11136360  0.54674520  0.22461683     0.38700
C112        C  0.22488387  0.41902491  0.28510813     0.38700
C113        C  0.16609287  0.45473332  0.33605483     0.37100
C114        C  0.17289673  0.51540282  0.17583319     0.37100
N115        N  0.16501657  0.44247718  0.36845485    -0.37700
N116        N  0.17443712  0.52799513  0.14354953    -0.37700
N117        N  0.24748995  0.39260601  0.29720937    -0.37100
N118        N  0.08737590  0.57031111  0.21101122    -0.37100
C119        C  0.39498112  0.49421526  0.22517282    -0.03800
C120        C  0.41329307  0.46361160  0.25201111    -0.00900
C121        C  0.44256279  0.47986807  0.27788231     0.04100
C122        C  0.45459912  0.52705069  0.27678371    -0.03800
C123        C  0.43717791  0.55728287  0.24884010    -0.00900
C124        C  0.40772491  0.54081694  0.22298605     0.04100
C125        C  0.40312129  0.41458113  0.25199180     0.38700
C126        C  0.45014112  0.60513908  0.24571640     0.38700
C127        C  0.39034695  0.57213143  0.19441668     0.37100
C128        C  0.45949253  0.44760557  0.30608624     0.37100
N129        N  0.37679588  0.59721314  0.17150731    -0.37700
N130        N  0.47286997  0.42155330  0.32832231    -0.37700
N131        N  0.46040499  0.64333659  0.24317622    -0.37100
N132        N  0.39509331  0.37553789  0.25172164    -0.37100
C133        C  0.22671259  0.52153394  0.96908141    -0.03800
C134        C  0.26748674  0.52471044  0.97759181    -0.00900
C135        C  0.28275424  0.50670493  0.01318844     0.04100
C136        C  0.25762234  0.48509244  0.04076812    -0.03800
C137        C  0.21692155  0.48206130  0.03244697    -0.00900
C138        C  0.20154949  0.50044924  0.99706193     0.04100
C139        C  0.29421296  0.54595036  0.94961862     0.38700
C140        C  0.19029244  0.46201343  0.06116077     0.38700
C141        C  0.15933906  0.50008718  0.99074243     0.37100
C142        C  0.32467239  0.50963564  0.02096826     0.37100
N143        N  0.12567204  0.50019633  0.98584565    -0.37700
N144        N  0.35806053  0.51209080  0.02720247    -0.37700
N145        N  0.16898052  0.44606993  0.08401318    -0.37100
N146        N  0.31565550  0.56310363  0.92752520    -0.37100
C147        C  0.47066289  0.49888988  0.54072602    -0.03800
C148        C  0.47378661  0.54688836  0.53235577    -0.00900
C149        C  0.49036232  0.56208525  0.49643123     0.04100
C150        C  0.00435731  0.52948137  0.46867486    -0.03800
C151        C  0.00001272  0.48152724  0.47666090    -0.00900
C152        C  0.98289340  0.46641108  0.51217120     0.04100
C153        C  0.46114612  0.58085869  0.56109271     0.38700
C154        C  0.01171297  0.44728806  0.44776271     0.38700
C155        C  0.97640706  0.41709641  0.51852804     0.37100
C156        C  0.49396790  0.61147547  0.48872512     0.37100
N157        N  0.97101580  0.37790736  0.52372877    -0.37700
N158        N  0.49665467  0.65087065  0.48262286    -0.37700
N159        N  0.02095720  0.41968013  0.42492985    -0.37100
N160        N  0.45101249  0.60798386  0.58397803    -0.37100
C161        C  0.33737222  0.50052945  0.72882860    -0.03800
C162        C  0.31850928  0.54332714  0.72094797    -0.00900
C163        C  0.28914733  0.56014506  0.74657458     0.04100
C164        C  0.27832882  0.53432059  0.78033898    -0.03800
C165        C  0.29756205  0.49186230  0.78840798    -0.00900
C166        C  0.32651903  0.47486322  0.76270012     0.04100
C167        C  0.32947967  0.57049337  0.68666273     0.38700
C168        C  0.28817812  0.46561148  0.82371252     0.38700
C169        C  0.34389261  0.42977449  0.77070333     0.37100
C170        C  0.26927912  0.60330879  0.73718761     0.37100
N171        N  0.35752997  0.39380895  0.77724324    -0.37700
N172        N  0.25366101  0.63775977  0.72933692    -0.37700
N173        N  0.28077473  0.44451673  0.85175242    -0.37100
N174        N  0.33825309  0.59184222  0.65915556    -0.37100
C175        C  0.02741845  0.48407130  0.73263101    -0.03800
C176        C  0.01719739  0.50717823  0.76776783    -0.00900
C177        C  0.04667818  0.52200582  0.79414855     0.04100
C178        C  0.08671537  0.51453151  0.78531333    -0.03800
C179        C  0.09686694  0.49031177  0.75059891    -0.00900
C180        C  0.06731456  0.47514898  0.72436486     0.04100
C181        C  0.47616307  0.51585496  0.77681294     0.38700
C182        C  0.13780154  0.48050431  0.74201804     0.38700
C183        C  0.07811413  0.45260053  0.68785997     0.37100
C184        C  0.03567379  0.54672376  0.82954113     0.37100
N185        N  0.08675004  0.43490254  0.65861957    -0.37700
N186        N  0.02663139  0.56638628  0.85772819    -0.37700
N187        N  0.17045601  0.47266150  0.73528770    -0.37100
N188        N  0.44345592  0.52291423  0.78389333    -0.37100
C189        C  0.09923756  0.80494872  0.86112420    -0.03800
C190        C  0.10709045  0.78067480  0.82595936    -0.00900
C191        C  0.12607266  0.73728003  0.82716513     0.04100
C192        C  0.13578536  0.71658760  0.86362290    -0.03800
C193        C  0.12744601  0.74050219  0.89887791    -0.00900
C194        C  0.10984048  0.78490578  0.89757272     0.04100
C195        C  0.09571916  0.80028009  0.78827713     0.38700
C196        C  0.13778045  0.72007144  0.93649475     0.38700
C197        C  0.10140851  0.80929479  0.93382640     0.37100
C198        C  0.13464379  0.71332893  0.79066226     0.37100
N199        N  0.09467636  0.82884833  0.96270550    -0.37700
N200        N  0.14172776  0.69425134  0.76163120    -0.37700
N201        N  0.14593196  0.70412806  0.96668143    -0.37100
N202        N  0.08627649  0.81555297  0.75821956    -0.37100
C203        C  0.34909041  0.21599385  0.64392799    -0.03800
C204        C  0.36843809  0.23284993  0.67776676    -0.00900
C205        C  0.38550331  0.27744254  0.67771514     0.04100
C206        C  0.38439873  0.30540124  0.64340754    -0.03800
C207        C  0.36547433  0.28809101  0.60926035    -0.00900
C208        C  0.34803623  0.24349480  0.60955131     0.04100
C209        C  0.37215170  0.20367715  0.71245519     0.38700
C210        C  0.36413069  0.31565399  0.57354604     0.38700
C211        C  0.32816800  0.22626836  0.57470010     0.37100
C212        C  0.40258245  0.29515716  0.71385983     0.37100
N213        N  0.31229787  0.21238209  0.54698775    -0.37700
N214        N  0.41603507  0.30933454  0.74271173    -0.37700
N215        N  0.36273160  0.33730204  0.54487119    -0.37100
N216        N  0.37560385  0.18062814  0.74015635    -0.37100
C217        C  0.45591294  0.97733466  0.76540846    -0.03800
C218        C  0.46485795  0.01193374  0.73711943    -0.00900
C219        C  0.43543986  0.02856655  0.71164464     0.04100
C220        C  0.39711481  0.01015178  0.71352264    -0.03800
C221        C  0.38866950  0.97350671  0.73982167    -0.00900
C222        C  0.41794992  0.95716768  0.76585308     0.04100
C223        C  0.50455210  0.03016080  0.73359914     0.38700
C224        C  0.34918348  0.95447761  0.74159984     0.38700
C225        C  0.40820907  0.92141173  0.79433032     0.37100
C226        C  0.44473863  0.06447797  0.68312712     0.37100
N227        N  0.40031355  0.89287332  0.81700031    -0.37700
N228        N  0.45227694  0.09301447  0.66034647    -0.37700
N229        N  0.31760446  0.93956179  0.74284409    -0.37100
N230        N  0.03614450  0.04472773  0.73070106    -0.37100
C231        C  0.20493947  0.03659747  0.72964461    -0.02200
C232        C  0.18412856  0.06697160  0.75462895    -0.00900
C233        C  0.15396151  0.04965584  0.77925082     0.04100
C234        C  0.14456180  0.00176036  0.77916437    -0.03800
C235        C  0.16612006  0.97142609  0.75472520    -0.00900
C236        C  0.19555497  0.98879702  0.72970057     0.04100
C237        C  0.19481316  0.11566524  0.75637290     0.38700
C238        C  0.15988107  0.92165242  0.75675111     0.38700
C239        C  0.21588883  0.95713410  0.70350206     0.37100
C240        C  0.13260642  0.08131957  0.80447190     0.37100
N241        N  0.23226121  0.93204591  0.68268013    -0.37700
N242        N  0.11574125  0.10656689  0.82475715    -0.37700
N243        N  0.15567757  0.88186729  0.75839437    -0.37100
N244        N  0.20339572  0.15447878  0.75811362    -0.37100
C245        C  0.10757570  0.70637835  0.35995162    -0.03800
C246        C  0.12045508  0.72600864  0.32403102    -0.00900
C247        C  0.14019446  0.76909896  0.32359778     0.04100
C248        C  0.14716583  0.79332614  0.35903303    -0.03800
C249        C  0.13420195  0.77382572  0.39496959    -0.00900
C250        C  0.11489608  0.73030858  0.39547927     0.04100
C251        C  0.11367479  0.70182345  0.28722551     0.38700
C252        C  0.14057967  0.79859898  0.43151501     0.38700
C253        C  0.10099264  0.71126888  0.43246719     0.37100
C254        C  0.15129092  0.78970457  0.28622369     0.37100
N255        N  0.08979913  0.69624627  0.46199465    -0.37700
N256        N  0.15992297  0.80629254  0.25643473    -0.37700
N257        N  0.14545091  0.81858736  0.46059282    -0.37100
N258        N  0.10814367  0.68282861  0.25778653    -0.37100
C259        C  0.26102978  0.02198747  0.53703170    -0.03800
C260        C  0.22173786  0.00636104  0.53288189    -0.00900
C261        C  0.20866599  0.98702379  0.49699405     0.04100
C262        C  0.23451235  0.98353995  0.46467660    -0.03800
C263        C  0.27374209  0.99917131  0.46875076    -0.00900
C264        C  0.28694853  0.01812274  0.50471493     0.04100
C265        C  0.19495629  0.00849611  0.56599709     0.38700
C266        C  0.30024377  0.99767337  0.43536807     0.38700
C267        C  0.32693493  0.03531095  0.50783047     0.37100
C268        C  0.16899005  0.96885202  0.49387139     0.37100
N269        N  0.35882254  0.04905983  0.51030325    -0.37700
N270        N  0.13744539  0.95405572  0.49131793    -0.37700
N271        N  0.32132125  0.99667267  0.40871504    -0.37100
N272        N  0.17364617  0.01022667  0.59243990    -0.37100
C273        C  0.35215307  0.29773061  0.14681796    -0.03800
C274        C  0.33654257  0.26038232  0.16912731    -0.00900
C275        C  0.35570381  0.21700224  0.16972582     0.04100
C276        C  0.39033744  0.20996652  0.14757759    -0.03800
C277        C  0.40569108  0.24678929  0.12486845    -0.00900
C278        C  0.38685520  0.29041665  0.12453876     0.04100
C279        C  0.30136760  0.26645563  0.19269353     0.38700
C280        C  0.44017727  0.23945874  0.10057706     0.38700
C281        C  0.40293546  0.32719025  0.10012588     0.37100
C282        C  0.34050965  0.18016311  0.19472722     0.37100
N283        N  0.41598663  0.35633845  0.08062522    -0.37700
N284        N  0.32840713  0.15099989  0.21482024    -0.37700
N285        N  0.46758765  0.23378952  0.08106998    -0.37100
N286        N  0.27325541  0.27093173  0.21142423    -0.37100
C287        C  0.47781860  0.02662732  0.03543735    -0.03800
C288        C  0.48591456  0.97897535  0.02986202    -0.00900
C289        C  0.49905669  0.96278145  0.99306088     0.04100
C290        C  0.00466273  0.99406284  0.96147576    -0.03800
C291        C  0.99622219  0.04167319  0.96692072    -0.00900
C292        C  0.98314413  0.05792320  0.00379753     0.04100
C293        C  0.48291852  0.94675602  0.06262000     0.38700
C294        C  0.99924684  0.07383460  0.93416861     0.38700
C295        C  0.97446102  0.10684389  0.00887817     0.37100
C296        C  0.50810900  0.91394461  0.98827764     0.37100
N297        N  0.96766651  0.14585623  0.01307110    -0.37700
N298        N  0.51513785  0.87493309  0.98459735    -0.37700
N299        N  0.00123027  0.09972795  0.90817986    -0.37100
N300        N  0.48073444  0.92116026  0.08880429    -0.37100
C301        C  0.35433588  0.00626244  0.22294566    -0.03800
C302        C  0.31466926  0.01527741  0.21346913    -0.00900
C303        C  0.28447994  0.00042055  0.23885650     0.04100
C304        C  0.29355187  0.97497030  0.27332842    -0.03800
C305        C  0.33322024  0.96472679  0.28218087    -0.00900
C306        C  0.36351358  0.98057532  0.25718237     0.04100
C307        C  0.30475101  0.04089617  0.17799824     0.38700
C308        C  0.34316646  0.93935443  0.31769939     0.38700
C309        C  0.40415131  0.96932498  0.26608629     0.37100
C310        C  0.24400012  0.01128417  0.22902609     0.37100
N311        N  0.43661312  0.96032969  0.27284847    -0.37700
N312        N  0.21195840  0.02063730  0.22082861    -0.37700
N313        N  0.35141416  0.91910963  0.34594767    -0.37100
N314        N  0.29680782  0.06099960  0.14958826    -0.37100
C315        C  0.10378963  0.99498571  0.27534176    -0.03800
C316        C  0.07416561  0.02421881  0.29086975    -0.00900
C317        C  0.04534195  0.04389831  0.26591201     0.04100
C318        C  0.04547217  0.03432235  0.22515328    -0.03800
C319        C  0.07560153  0.00633764  0.20941166    -0.00900
C320        C  0.10421971  0.98633318  0.23425176     0.04100
C321        C  0.07152554  0.03191679  0.33293510     0.38700
C322        C  0.07775953  0.99876993  0.16723239     0.38700
C323        C  0.13400336  0.95681529  0.21688976     0.37100
C324        C  0.01440960  0.07221098  0.28270321     0.37100
N325        N  0.15737215  0.93308925  0.20261912    -0.37700
N326        N  0.98976499  0.09483157  0.29608677    -0.37700
N327        N  0.07949018  0.99284775  0.13363749    -0.37100
N328        N  0.06911939  0.03790333  0.36647484    -0.37100
O329        O  0.94672263  0.15913869  0.15130358    -0.56300
C330        C  0.01227645  0.04952950  0.19958756     0.76400
O331        O  0.88566802  0.02461338  0.16138197    -0.57400
C332        C  0.90983084  0.16383483  0.14793547     0.76300
C333        C  0.96508901  0.04361540  0.07466982     0.78700
Cd334      Cd  0.94457987  0.07294777  0.15283941     1.37500
O335        O  0.99643657  0.08916810  0.20241549    -0.56300
O336        O  0.97948067  0.07996309  0.08978770    -0.55100
C337        C  0.88609219  0.02658728  0.19860170     0.78700
O338        O  0.94002060  0.02186637  0.09514252    -0.57400
O339        O  0.99766859  0.02240679  0.17429364    -0.55900
O340        O  0.88996911  0.12692132  0.14546116    -0.55900
O341        O  0.91437382  0.04827680  0.21425129    -0.55100
O342        O  0.69594852  0.84863997  0.33734344    -0.56300
C343        C  0.76143920  0.96000597  0.30004474     0.76400
O344        O  0.64656514  0.99339806  0.33261790    -0.57400
C345        C  0.66565534  0.84022108  0.35782339     0.76300
C346        C  0.72044621  0.96484980  0.42631851     0.78700
Cd347      Cd  0.69622382  0.93325730  0.34920497     1.37500
O348        O  0.75861290  0.91887808  0.31304266    -0.56300
O349        O  0.74011100  0.93537421  0.40715240    -0.55100
C350        C  0.63425435  0.97368740  0.30164984     0.78700
O351        O  0.68865845  0.97837407  0.41065172    -0.57400
O352        O  0.73493372  0.98800513  0.31045249    -0.55900
O353        O  0.65093347  0.87428429  0.37598244    -0.55900
O354        O  0.64972541  0.93490854  0.29393225    -0.55100
O355        O  0.73526890  0.08938605  0.68311654    -0.56300
C356        C  0.83058651  0.16934003  0.64470875     0.76400
O357        O  0.84407112  0.00969800  0.66661487    -0.57400
C358        C  0.73763088  0.05333309  0.70437635     0.76300
C359        C  0.77506848  0.04147128  0.57524507     0.78700
Cd360      Cd  0.80063464  0.07618739  0.65128575     1.37500
O361        O  0.80613811  0.15800487  0.67107648    -0.56300
O362        O  0.75433637  0.06903579  0.59531619    -0.55100
C363        C  0.86518501  0.03215696  0.69067854     0.78700
O364        O  0.80819617  0.03097122  0.58971571    -0.57400
O365        O  0.83933323  0.13847440  0.61983154    -0.55900
O366        O  0.76915746  0.03053893  0.70201798    -0.55900
O367        O  0.85727628  0.07462822  0.69518706    -0.55100
O368        O  0.54984988  0.85872168  0.83936638    -0.56300
C369        C  0.48599017  0.96439704  0.79516276     0.76400
O370        O  0.54738627  0.99721147  0.90506374    -0.57400
C371        C  0.58071181  0.85154757  0.85926468     0.76300
C372        C  0.61188878  0.98298337  0.80359102     0.78700
Cd373      Cd  0.54864931  0.94319885  0.84857874     1.37500
O374        O  0.49132171  0.92302362  0.80664175    -0.56300
O375        O  0.58958556  0.95145222  0.79056615    -0.55100
C376        C  0.51970777  0.97694397  0.92309597     0.78700
O377        O  0.60496503  0.99690536  0.83821742    -0.57400
O378        O  0.50819306  0.99488686  0.81000371    -0.55900
O379        O  0.59565392  0.88639075  0.87629012    -0.55900
O380        O  0.50578054  0.94098591  0.90692585    -0.55100
O381        O  0.99148010  0.42931965  0.69275730    -0.56300
C382        C  0.90164212  0.35306835  0.64438714     0.76400
O383        O  0.86891929  0.48945766  0.66565814    -0.57400
C384        C  0.99615508  0.47075116  0.70435670     0.76300
C385        C  0.95632834  0.48210553  0.57962780     0.78700
Cd386      Cd  0.93098954  0.44661449  0.65451069     1.37500
O387        O  0.93279568  0.36198677  0.66334118    -0.56300
O388        O  0.97153524  0.44699305  0.59595094    -0.55100
C389        C  0.86895758  0.48283460  0.70253111     0.78700
O390        O  0.92866888  0.50158630  0.59817252    -0.57400
O391        O  0.88515513  0.38727312  0.62790415    -0.55900
O392        O  0.97204542  0.50053178  0.69150717    -0.55900
O393        O  0.89755030  0.45999398  0.71619789    -0.55100
O394        O  0.74061565  0.59174858  0.81597348    -0.56300
C395        C  0.65296146  0.66920377  0.86412302     0.76400
O396        O  0.61889181  0.52997878  0.84756822    -0.57400
C397        C  0.74563432  0.54973676  0.80622327     0.76300
C398        C  0.71048357  0.54020763  0.93120796     0.78700
Cd399      Cd  0.68114034  0.57512810  0.85631335     1.37500
O400        O  0.68236861  0.65899358  0.84315645    -0.56300
O401        O  0.72458307  0.57593692  0.91476403    -0.55100
C402        C  0.61806407  0.53489510  0.81050348     0.78700
O403        O  0.68194584  0.52116418  0.91349152    -0.57400
O404        O  0.63770020  0.63637548  0.88362903    -0.55900
O405        O  0.72120932  0.52078789  0.81985635    -0.55900
O406        O  0.64549661  0.55858614  0.79551929    -0.55100
O407        O  0.55918269  0.65242469  0.33571595    -0.56300
C408        C  0.98668913  0.54356147  0.30335689     0.76400
O409        O  0.59733375  0.50646007  0.33863248    -0.57400
C410        C  0.58665763  0.66092279  0.35990317     0.76300
C411        C  0.52182073  0.54502481  0.43060533     0.78700
Cd412      Cd  0.55095568  0.57057096  0.35382891     1.37500
O413        O  0.98873910  0.58468980  0.31646001    -0.56300
O414        O  0.50758279  0.57861711  0.41128613    -0.55100
C415        C  0.61161199  0.52647559  0.30857709     0.78700
O416        O  0.55094567  0.52456401  0.41520859    -0.57400
O417        O  0.51389174  0.51660665  0.31394102    -0.55900
O418        O  0.59613406  0.62829611  0.38309680    -0.55900
O419        O  0.59966618  0.56727126  0.30210239    -0.55100
O420        O  0.79697251  0.35018081  0.15430997    -0.56300
C421        C  0.73337949  0.45569615  0.20582207     0.76400
O422        O  0.85885416  0.48532775  0.16422407    -0.57400
C423        C  0.83337718  0.34461156  0.14818912     0.76300
C424        C  0.77337370  0.46740435  0.07895219     0.78700
Cd425      Cd  0.79940707  0.43587728  0.15578827     1.37500
O426        O  0.74482060  0.41424294  0.20133123    -0.56300
O427        O  0.76243486  0.42900799  0.09335321    -0.55100
C428        C  0.86176697  0.47702137  0.20075930     0.78700
O429        O  0.79773108  0.49041357  0.09926765    -0.57400
O430        O  0.75230982  0.48661737  0.18741827    -0.55900
O431        O  0.85326532  0.38136982  0.14409569    -0.55900
O432        O  0.83520009  0.45192521  0.21582111    -0.55100
C433        C  0.64038877  0.50385071  0.28157158    -0.03800
C434        C  0.64147856  0.51690834  0.24131012    -0.00900
C435        C  0.67128326  0.50002976  0.21652937     0.04100
C436        C  0.69946908  0.46843876  0.23099834    -0.03800
C437        C  0.69651091  0.45215793  0.27011113    -0.00900
C438        C  0.66728850  0.47004569  0.29541299     0.04100
C439        C  0.61136350  0.54674513  0.22461682     0.38700
C440        C  0.72488381  0.41902480  0.28510792     0.38700
C441        C  0.66609297  0.45473346  0.33605480     0.37100
C442        C  0.67289667  0.51540283  0.17583318     0.37100
N443        N  0.66501680  0.44247725  0.36845484    -0.37700
N444        N  0.67443708  0.52799515  0.14354951    -0.37700
N445        N  0.74748987  0.39260575  0.29720905    -0.37100
N446        N  0.58737562  0.57031078  0.21101123    -0.37100
C447        C  0.89498112  0.49421520  0.22517270    -0.03800
C448        C  0.91329302  0.46361152  0.25201104    -0.00900
C449        C  0.94256282  0.47986794  0.27788213     0.04100
C450        C  0.95459911  0.52705051  0.27678361    -0.03800
C451        C  0.93717780  0.55728282  0.24884008    -0.00900
C452        C  0.90772492  0.54081679  0.22298598     0.04100
C453        C  0.90312121  0.41458109  0.25199170     0.38700
C454        C  0.95014093  0.60513901  0.24571644     0.38700
C455        C  0.89034692  0.57213140  0.19441656     0.37100
C456        C  0.95949271  0.44760535  0.30608590     0.37100
N457        N  0.87679581  0.59721319  0.17150747    -0.37700
N458        N  0.97287025  0.42155296  0.32832177    -0.37700
N459        N  0.96040488  0.64333655  0.24317623    -0.37100
N460        N  0.89509326  0.37553785  0.25172138    -0.37100
C461        C  0.72671237  0.52153421  0.96908142    -0.03800
C462        C  0.76748651  0.52471053  0.97759175    -0.00900
C463        C  0.78275403  0.50670504  0.01318840     0.04100
C464        C  0.75762207  0.48509267  0.04076814    -0.03800
C465        C  0.71692129  0.48206162  0.03244702    -0.00900
C466        C  0.70154921  0.50044958  0.99706198     0.04100
C467        C  0.79421284  0.54595026  0.94961843     0.38700
C468        C  0.69029214  0.46201377  0.06116081     0.38700
C469        C  0.65933886  0.50008764  0.99074259     0.37100
C470        C  0.82467213  0.50963566  0.02096822     0.37100
N471        N  0.62567174  0.50019699  0.98584595    -0.37700
N472        N  0.85806033  0.51209079  0.02720245    -0.37700
N473        N  0.66898018  0.44607027  0.08401319    -0.37100
N474        N  0.81565541  0.56310326  0.92752496    -0.37100
C475        C  0.97066275  0.49888985  0.54072592    -0.03800
C476        C  0.97378649  0.54688835  0.53235567    -0.00900
C477        C  0.99036224  0.56208524  0.49643115     0.04100
C478        C  0.50435743  0.52948137  0.46867493    -0.03800
C479        C  0.50001277  0.48152724  0.47666096    -0.00900
C480        C  0.48289349  0.46641108  0.51217128     0.04100
C481        C  0.96114585  0.58085867  0.56109247     0.38700
C482        C  0.51171293  0.44728806  0.44776274     0.38700
C483        C  0.47640710  0.41709642  0.51852810     0.37100
C484        C  0.99396779  0.61147547  0.48872501     0.37100
N485        N  0.47101584  0.37790736  0.52372877    -0.37700
N486        N  0.99665437  0.65087066  0.48262260    -0.37700
N487        N  0.52095714  0.41968014  0.42492986    -0.37100
N488        N  0.95101212  0.60798388  0.58397774    -0.37100
C489        C  0.83737224  0.50052946  0.72882876    -0.03800
C490        C  0.81850926  0.54332710  0.72094801    -0.00900
C491        C  0.78914727  0.56014499  0.74657460     0.04100
C492        C  0.77832882  0.53432063  0.78033906    -0.03800
C493        C  0.79756221  0.49186248  0.78840825    -0.00900
C494        C  0.82651919  0.47486333  0.76270037     0.04100
C495        C  0.82947951  0.57049315  0.68666269     0.38700
C496        C  0.78817821  0.46561171  0.82371277     0.38700
C497        C  0.84389282  0.42977470  0.77070363     0.37100
C498        C  0.76927894  0.60330869  0.73718750     0.37100
N499        N  0.85753020  0.39380908  0.77724353    -0.37700
N500        N  0.75366087  0.63775954  0.72933664    -0.37700
N501        N  0.78077470  0.44451684  0.85175263    -0.37100
N502        N  0.83825278  0.59184185  0.65915531    -0.37100
C503        C  0.52741838  0.48407140  0.73263100    -0.03800
C504        C  0.51719733  0.50717840  0.76776778    -0.00900
C505        C  0.54667803  0.52200595  0.79414858     0.04100
C506        C  0.58671526  0.51453176  0.78531333    -0.03800
C507        C  0.59686682  0.49031200  0.75059892    -0.00900
C508        C  0.56731452  0.47514902  0.72436487     0.04100
C509        C  0.97616320  0.51585498  0.77681296     0.38700
C510        C  0.63780148  0.48050447  0.74201812     0.38700
C511        C  0.57811407  0.45260045  0.68786013     0.37100
C512        C  0.53567355  0.54672367  0.82954134     0.37100
N513        N  0.58674998  0.43490227  0.65861969    -0.37700
N514        N  0.52663106  0.56638592  0.85772845    -0.37700
N515        N  0.67045595  0.47266179  0.73528797    -0.37100
N516        N  0.94345601  0.52291454  0.78389331    -0.37100
C517        C  0.59923727  0.80494856  0.86112427    -0.03800
C518        C  0.60709042  0.78067486  0.82595940    -0.00900
C519        C  0.62607288  0.73728024  0.82716511     0.04100
C520        C  0.63578529  0.71658765  0.86362288    -0.03800
C521        C  0.62744561  0.74050198  0.89887792    -0.00900
C522        C  0.60984009  0.78490556  0.89757278     0.04100
C523        C  0.59571916  0.80028021  0.78827723     0.38700
C524        C  0.63777960  0.72007097  0.93649476     0.38700
C525        C  0.60140814  0.80929447  0.93382647     0.37100
C526        C  0.63464433  0.71332932  0.79066223     0.37100
N527        N  0.59467603  0.82884792  0.96270568    -0.37700
N528        N  0.64172858  0.69425173  0.76163123    -0.37700
N529        N  0.64593075  0.70412736  0.96668147    -0.37100
N530        N  0.58627645  0.81555303  0.75821960    -0.37100
C531        C  0.84909039  0.21599382  0.64392823    -0.03800
C532        C  0.86843818  0.23284991  0.67776693    -0.00900
C533        C  0.88550330  0.27744257  0.67771530     0.04100
C534        C  0.88439868  0.30540123  0.64340768    -0.03800
C535        C  0.86547426  0.28809097  0.60926053    -0.00900
C536        C  0.84803603  0.24349483  0.60955159     0.04100
C537        C  0.87215200  0.20367712  0.71245538     0.38700
C538        C  0.86413056  0.31565395  0.57354625     0.38700
C539        C  0.82816767  0.22626845  0.57470040     0.37100
C540        C  0.90258249  0.29515721  0.71385989     0.37100
N541        N  0.81229751  0.21238238  0.54698802    -0.37700
N542        N  0.91603531  0.30933456  0.74271175    -0.37700
N543        N  0.86273129  0.33730208  0.54487144    -0.37100
N544        N  0.87560438  0.18062809  0.74015645    -0.37100
C545        C  0.95591302  0.97733465  0.76540847    -0.03800
C546        C  0.96485810  0.01193333  0.73711912    -0.00900
C547        C  0.93544008  0.02856593  0.71164416     0.04100
C548        C  0.89711495  0.01015144  0.71352251    -0.03800
C549        C  0.88866952  0.97350672  0.73982181    -0.00900
C550        C  0.91794993  0.95716785  0.76585333     0.04100
C551        C  0.00455236  0.03016010  0.73359860     0.38700
C552        C  0.84918346  0.95447778  0.74160012     0.38700
C553        C  0.90820901  0.92141229  0.79433084     0.37100
C554        C  0.94473895  0.06447689  0.68312625     0.37100
N555        N  0.90031349  0.89287401  0.81700098    -0.37700
N556        N  0.95227744  0.09301305  0.66034532    -0.37700
N557        N  0.81760443  0.93956187  0.74284440    -0.37100
N558        N  0.53614418  0.04472877  0.73070168    -0.37100
C559        C  0.70493941  0.03659723  0.72964464    -0.02200
C560        C  0.68412824  0.06697144  0.75462864    -0.00900
C561        C  0.65396114  0.04965579  0.77925048     0.04100
C562        C  0.64456158  0.00176024  0.77916431    -0.03800
C563        C  0.66612009  0.97142587  0.75472547    -0.00900
C564        C  0.69555516  0.98879667  0.72970093     0.04100
C565        C  0.69481260  0.11566521  0.75637229     0.38700
C566        C  0.65988128  0.92165214  0.75675177     0.38700
C567        C  0.71588930  0.95713363  0.70350285     0.37100
C568        C  0.63260576  0.08131966  0.80447109     0.37100
N569        N  0.73226178  0.93204525  0.68268107    -0.37700
N570        N  0.61574032  0.10656723  0.82475597    -0.37700
N571        N  0.65567786  0.88186705  0.75839550    -0.37100
N572        N  0.70339505  0.15447876  0.75811274    -0.37100
C573        C  0.60757562  0.70637844  0.35995159    -0.03800
C574        C  0.62045481  0.72600881  0.32403092    -0.00900
C575        C  0.64019442  0.76909904  0.32359774     0.04100
C576        C  0.64716593  0.79332614  0.35903302    -0.03800
C577        C  0.63420215  0.77382562  0.39496960    -0.00900
C578        C  0.61489626  0.73030850  0.39547926     0.04100
C579        C  0.61367424  0.70182380  0.28722542     0.38700
C580        C  0.64058003  0.79859877  0.43151511     0.38700
C581        C  0.60099292  0.71126865  0.43246719     0.37100
C582        C  0.65129088  0.78970467  0.28622366     0.37100
N583        N  0.58979941  0.69624593  0.46199460    -0.37700
N584        N  0.65992291  0.80629282  0.25643476    -0.37700
N585        N  0.64545144  0.81858702  0.46059290    -0.37100
N586        N  0.60814302  0.68282901  0.25778633    -0.37100
C587        C  0.76102994  0.02198731  0.53703176    -0.03800
C588        C  0.72173811  0.00636069  0.53288201    -0.00900
C589        C  0.70866620  0.98702343  0.49699422     0.04100
C590        C  0.73451254  0.98353972  0.46467671    -0.03800
C591        C  0.77374223  0.99917124  0.46875084    -0.00900
C592        C  0.78694867  0.01812268  0.50471498     0.04100
C593        C  0.69495651  0.00849582  0.56599727     0.38700
C594        C  0.80024395  0.99767332  0.43536821     0.38700
C595        C  0.82693512  0.03531071  0.50783057     0.37100
C596        C  0.66899031  0.96885156  0.49387167     0.37100
N597        N  0.85882276  0.04905944  0.51030351    -0.37700
N598        N  0.63744566  0.95405508  0.49131849    -0.37700
N599        N  0.82132156  0.99667266  0.40871528    -0.37100
N600        N  0.67364640  0.01022663  0.59243997    -0.37100
C601        C  0.85215314  0.29773066  0.14681782    -0.03800
C602        C  0.83654256  0.26038241  0.16912718    -0.00900
C603        C  0.85570380  0.21700236  0.16972572     0.04100
C604        C  0.89033740  0.20996655  0.14757753    -0.03800
C605        C  0.90569108  0.24678925  0.12486832    -0.00900
C606        C  0.88685531  0.29041670  0.12453869     0.04100
C607        C  0.80136766  0.26645573  0.19269353     0.38700
C608        C  0.94017710  0.23945857  0.10057682     0.38700
C609        C  0.90293559  0.32719021  0.10012579     0.37100
C610        C  0.84050960  0.18016327  0.19472714     0.37100
N611        N  0.91598680  0.35633836  0.08062501    -0.37700
N612        N  0.82840708  0.15099994  0.21482000    -0.37700
N613        N  0.96758752  0.23378922  0.08106970    -0.37100
N614        N  0.77325563  0.27093173  0.21142449    -0.37100
C615        C  0.97781846  0.02662737  0.03543711    -0.03800
C616        C  0.98591476  0.97897549  0.02986182    -0.00900
C617        C  0.99905695  0.96278161  0.99306070     0.04100
C618        C  0.50466265  0.99406268  0.96147596    -0.03800
C619        C  0.49622229  0.04167308  0.96692091    -0.00900
C620        C  0.48314445  0.05792309  0.00379778     0.04100
C621        C  0.98291906  0.94675626  0.06261983     0.38700
C622        C  0.49924724  0.07383453  0.93416887     0.38700
C623        C  0.47446186  0.10684390  0.00887849     0.37100
C624        C  0.00810970  0.91394488  0.98827763     0.37100
N625        N  0.46766774  0.14585628  0.01307141    -0.37700
N626        N  0.01513904  0.87493341  0.98459762    -0.37700
N627        N  0.50123107  0.09972796  0.90818015    -0.37100
N628        N  0.98073527  0.92116061  0.08880427    -0.37100
C629        C  0.85433577  0.00626251  0.22294567    -0.03800
C630        C  0.81466912  0.01527734  0.21346905    -0.00900
C631        C  0.78447981  0.00042059  0.23885651     0.04100
C632        C  0.79355172  0.97497051  0.27332848    -0.03800
C633        C  0.83322011  0.96472690  0.28218090    -0.00900
C634        C  0.86351347  0.98057547  0.25718240     0.04100
C635        C  0.80475085  0.04089580  0.17799812     0.38700
C636        C  0.84316636  0.93935477  0.31769947     0.38700
C637        C  0.90415122  0.96932527  0.26608634     0.37100
C638        C  0.74399998  0.01128411  0.22902608     0.37100
N639        N  0.93661307  0.96033005  0.27284846    -0.37700
N640        N  0.71195823  0.02063703  0.22082858    -0.37700
N641        N  0.85141413  0.91911030  0.34594794    -0.37100
N642        N  0.79680751  0.06099897  0.14958796    -0.37100
C643        C  0.60378969  0.99498574  0.27534188    -0.03800
C644        C  0.57416564  0.02421881  0.29086982    -0.00900
C645        C  0.54534200  0.04389826  0.26591207     0.04100
C646        C  0.54547231  0.03432238  0.22515337    -0.03800
C647        C  0.57560161  0.00633760  0.20941178    -0.00900
C648        C  0.60421977  0.98633313  0.23425190     0.04100
C649        C  0.57152552  0.03191678  0.33293513     0.38700
C650        C  0.57775964  0.99876993  0.16723254     0.38700
C651        C  0.63400340  0.95681527  0.21688997     0.37100
C652        C  0.51440964  0.07221099  0.28270324     0.37100
N653        N  0.65737234  0.93308927  0.20261943    -0.37700
N654        N  0.48976518  0.09483166  0.29608682    -0.37700
N655        N  0.57949018  0.99284777  0.13363760    -0.37100
N656        N  0.56911934  0.03790333  0.36647485    -0.37100
loop_ 
_geom_bond_atom_site_label_1 
_geom_bond_atom_site_label_2 
_geom_bond_distance 
_geom_bond_site_symmetry_2 
_ccdc_geom_bond_type 
O1            C4   1.268       .  A
O1           Cd6   2.485       .  S
C2           O11   1.265       .  A
C2            O7   1.268       .  A
C2          C646   1.490       .  S
O3            C9   1.267       .  A
O3           Cd6   2.456       .  S
C4           O12   1.262       .  A
C4          C276   1.487       .  S
C5           O10   1.266       .  A
C5            O8   1.266       .  A
C5          C287   1.488       .  S
Cd6          O13   2.433       .  S
Cd6          O12   2.438       .  S
Cd6          O11   2.432       .  S
Cd6           O7   2.483       .  S
Cd6          O10   2.461       .  S
Cd6           O8   2.461       .  S
C9           O13   1.264       .  A
C9          C301   1.481       .  S
O14          C17   1.268       .  A
O14         Cd19   2.473       .  S
C15          O24   1.263       .  A
C15          O20   1.268       .  A
C15         C304   1.485       .  S
O16          C22   1.268       .  A
O16         Cd19   2.486       .  S
C17          O25   1.266       .  A
C17         C248   1.490       .  S
C18          O23   1.267       .  A
C18          O21   1.265       .  A
C18         C262   1.491       .  S
Cd19         O26   2.456       .  S
Cd19         O25   2.466       .  S
Cd19         O24   2.439       .  S
Cd19         O20   2.491       .  S
Cd19         O23   2.478       .  S
Cd19         O21   2.472       .  S
C22          O26   1.265       .  A
C22         C315   1.500       .  S
O27          C30   1.267       .  A
O27         Cd32   2.505       .  S
C28          O37   1.265       .  A
C28          O33   1.266       .  A
C28         C203   1.484       .  S
O29          C35   1.267       .  A
O29         Cd32   2.476       .  S
C30          O38   1.262       .  A
C30         C231   1.486       .  S
C31          O36   1.266       .  A
C31          O34   1.265       .  A
C31         C259   1.495       .  S
Cd32         O39   2.437       .  S
Cd32         O38   2.418       .  S
Cd32         O37   2.467       .  S
Cd32         O33   2.461       .  S
Cd32         O36   2.483       .  S
Cd32         O34   2.478       .  S
C35          O39   1.263       .  A
C35         C220   1.478       .  S
O40          C43   1.265       .  A
O40         Cd45   2.456       .  S
C41          O50   1.263   1_655  A
C41          O46   1.267       .  A
C41         C545   1.486       .  S
O42          C48   1.266       .  A
O42         Cd45   2.476       .  S
C43          O51   1.266       .  A
C43         C189   1.486       .  S
C44          O49   1.268       .  A
C44          O47   1.264       .  A
C44         C234   1.489   1_565  S
Cd45         O52   2.465       .  S
Cd45         O51   2.475       .  S
Cd45         O50   2.414       .  S
Cd45         O46   2.484   1_455  S
Cd45         O49   2.486       .  S
Cd45         O47   2.428       .  S
C48          O52   1.265       .  A
C48         C290   1.489       .  S
O53          C56   1.268       .  A
O53         Cd58   2.484       .  S
C54          O63   1.264       .  A
C54          O59   1.266       .  A
C54         C206   1.493       .  S
O55          C61   1.268       .  A
O55         Cd58   2.478       .  S
C56          O64   1.265       .  A
C56         C503   1.484       .  S
C57          O62   1.267       .  A
C57          O60   1.264       .  A
C57         C147   1.490       .  S
Cd58         O65   2.420       .  S
Cd58         O64   2.439       .  S
Cd58         O63   2.484       .  S
Cd58         O59   2.458       .  S
Cd58         O62   2.485       .  S
Cd58         O60   2.425       .  S
C61          O65   1.263       .  A
C61         C161   1.491       .  S
O66          C69   1.268       .  A
O66         Cd71   2.492       .  S
C67          O76   1.265       .  A
C67          O72   1.265       .  A
C67         C192   1.486       .  S
O68          C74   1.269       .  A
O68         Cd71   2.502       .  S
C69          O77   1.264       .  A
C69         C164   1.489       .  S
C70          O75   1.267       .  A
C70          O73   1.265       .  A
C70         C133   1.500       .  S
Cd71         O78   2.443       .  S
Cd71         O77   2.423       .  S
Cd71         O76   2.487       .  S
Cd71         O72   2.457       .  S
Cd71         O75   2.487       .  S
Cd71         O73   2.476       .  S
C74          O78   1.263       .  A
C74         C178   1.488       .  S
O79          C82   1.268       .  A
O79         Cd84   2.452       .  S
C80          O85   1.269       .  A
C80         O417   1.261       .  A
C80         C122   1.494       .  S
O81          C87   1.269       .  A
O81         Cd84   2.488       .  S
C82          O90   1.268       .  A
C82         C245   1.490       .  S
C83          O88   1.269       .  A
C83          O86   1.265       .  A
C83         C150   1.493       .  S
Cd84         O91   2.421       .  S
Cd84         O90   2.473       .  S
Cd84         O89   2.418       .  S
Cd84         O88   2.470       .  S
Cd84         O86   2.462       .  S
Cd84        O413   2.501   1_455  S
O85        Cd412   2.501       .  S
C87          O91   1.263       .  A
C87         C105   1.495       .  S
O89         C408   1.261   1_455  A
O92          C95   1.267       .  A
O92         Cd97   2.472       .  S
C93         O102   1.264       .  A
C93          O98   1.267       .  A
C93         C108   1.485       .  S
O94         C100   1.269       .  A
O94         Cd97   2.489       .  S
C95         O103   1.264       .  A
C95         C273   1.496       .  S
C96         O101   1.266       .  A
C96          O99   1.265       .  A
C96         C136   1.493       .  S
Cd97        O104   2.421       .  S
Cd97        O103   2.449       .  S
Cd97        O102   2.426       .  S
Cd97         O98   2.498       .  S
Cd97        O101   2.481       .  S
Cd97         O99   2.475       .  S
C100        O104   1.265       .  A
C100        C119   1.486       .  S
C105        C106   1.420       .  A
C105        C110   1.417       .  A
C106        C107   1.408       .  A
C106        C111   1.453       .  S
C107        C108   1.411       .  A
C107        C114   1.453       .  S
C108        C109   1.413       .  A
C109        C110   1.415       .  A
C109        C112   1.450       .  S
C110        C113   1.451       .  S
C111        N118   1.158       .  T
C112        N117   1.158       .  T
C113        N115   1.157       .  T
C114        N116   1.157       .  T
C119        C120   1.413       .  A
C119        C124   1.412       .  A
C120        C121   1.408       .  A
C120        C125   1.454       .  S
C121        C122   1.420       .  A
C121        C128   1.453       .  S
C122        C123   1.418       .  A
C123        C124   1.414       .  A
C123        C126   1.451       .  S
C124        C127   1.451       .  S
C125        N132   1.157       .  T
C126        N131   1.157       .  T
C127        N129   1.157       .  T
C128        N130   1.158       .  T
C133        C134   1.420       .  A
C133        C138   1.416       .  A
C134        C135   1.415   1_556  A
C134        C139   1.451       .  S
C135        C136   1.413       .  A
C135        C142   1.453       .  S
C136        C137   1.416       .  A
C137        C138   1.414   1_554  A
C137        C140   1.451       .  S
C138        C141   1.452       .  S
C139        N146   1.158       .  T
C140        N145   1.158       .  T
C141        N143   1.157       .  T
C142        N144   1.157       .  T
C147        C148   1.415       .  A
C147        C480   1.414       .  A
C148        C149   1.415       .  A
C148        C153   1.451       .  S
C149        C478   1.417       .  A
C149        C156   1.452       .  S
C150        C151   1.415       .  A
C150        C477   1.417   1_455  A
C151        C152   1.409   1_455  A
C151        C154   1.451       .  S
C152        C475   1.414       .  A
C152        C155   1.454       .  S
C153        N160   1.158       .  T
C154        N159   1.158       .  T
C155        N157   1.157       .  T
C156        N158   1.157       .  T
C161        C162   1.416       .  A
C161        C166   1.417       .  A
C162        C163   1.414       .  A
C162        C167   1.452       .  S
C163        C164   1.416       .  A
C163        C170   1.451       .  S
C164        C165   1.415       .  A
C165        C166   1.408       .  A
C165        C168   1.453       .  S
C166        C169   1.453       .  S
C167        N174   1.158       .  T
C168        N173   1.158       .  T
C169        N171   1.157       .  T
C170        N172   1.157       .  T
C175        C384   1.484   1_455  S
C175        C176   1.414       .  A
C175        C180   1.411       .  A
C176        C177   1.411       .  A
C176        C509   1.452   1_455  S
C177        C178   1.412       .  A
C177        C184   1.450       .  S
C178        C179   1.417       .  A
C179        C180   1.413       .  A
C179        C182   1.452       .  S
C180        C183   1.451       .  S
C181        C504   1.452       .  S
C181        N188   1.157       .  T
C182        N187   1.157       .  T
C183        N185   1.157       .  T
C184        N186   1.157       .  T
C189        C190   1.413       .  A
C189        C194   1.413       .  A
C190        C191   1.409       .  A
C190        C195   1.452       .  S
C191        C192   1.414       .  A
C191        C198   1.452       .  S
C192        C193   1.414       .  A
C193        C194   1.414       .  A
C193        C196   1.450       .  S
C194        C197   1.450       .  S
C195        N202   1.157       .  T
C196        N201   1.157       .  T
C197        N199   1.157       .  T
C198        N200   1.157       .  T
C203        C204   1.412       .  A
C203        C208   1.411       .  A
C204        C205   1.409       .  A
C204        C209   1.453       .  S
C205        C206   1.417       .  A
C205        C212   1.453       .  S
C206        C207   1.418       .  A
C207        C208   1.415       .  A
C207        C210   1.450       .  S
C208        C211   1.452       .  S
C209        N216   1.157       .  T
C210        N215   1.157       .  T
C211        N213   1.158       .  T
C212        N214   1.157       .  T
C217        C369   1.486       .  S
C217        C218   1.417   1_565  A
C217        C222   1.416       .  A
C218        C219   1.407       .  A
C218        C223   1.453       .  S
C219        C220   1.408       .  A
C219        C226   1.451       .  S
C220        C221   1.412   1_545  A
C221        C222   1.412       .  A
C221        C224   1.451       .  S
C222        C225   1.451       .  S
C223        N558   1.158       .  T
C224        N229   1.157       .  T
C225        N227   1.158       .  T
C226        N228   1.157       .  T
N230        C551   1.158       .  T
C231        C232   1.413       .  A
C231        C236   1.414   1_545  A
C232        C233   1.415       .  A
C232        C237   1.450       .  S
C233        C234   1.416       .  A
C233        C240   1.451       .  S
C234        C235   1.415   1_545  A
C235        C236   1.406       .  A
C235        C238   1.451       .  S
C236        C239   1.454       .  S
C237        N244   1.157       .  T
C238        N243   1.156       .  T
C239        N241   1.158       .  T
C240        N242   1.158       .  T
C245        C246   1.415       .  A
C245        C250   1.414       .  A
C246        C247   1.411       .  A
C246        C251   1.452       .  S
C247        C248   1.414       .  A
C247        C254   1.452       .  S
C248        C249   1.415       .  A
C249        C250   1.415       .  A
C249        C252   1.451       .  S
C250        C253   1.451       .  S
C251        N258   1.157       .  T
C252        N257   1.157       .  T
C253        N255   1.157       .  T
C254        N256   1.157       .  T
C259        C260   1.417       .  A
C259        C264   1.415       .  A
C260        C261   1.414   1_545  A
C260        C265   1.451       .  S
C261        C262   1.413       .  A
C261        C268   1.451       .  S
C262        C263   1.415       .  A
C263        C264   1.413   1_565  A
C263        C266   1.452       .  S
C264        C267   1.451       .  S
C265        N272   1.157       .  T
C266        N271   1.157       .  T
C267        N269   1.157       .  T
C268        N270   1.157       .  T
C273        C274   1.418       .  A
C273        C278   1.420       .  A
C274        C275   1.411       .  A
C274        C279   1.453       .  S
C275        C276   1.415       .  A
C275        C282   1.453       .  S
C276        C277   1.411       .  A
C277        C278   1.412       .  A
C277        C280   1.452       .  S
C278        C281   1.452       .  S
C279        N286   1.158       .  T
C280        N285   1.157       .  T
C281        N283   1.157       .  T
C282        N284   1.157       .  T
C287        C288   1.414   1_545  A
C287        C620   1.414       .  A
C288        C289   1.411   1_554  A
C288        C293   1.452       .  S
C289        C618   1.414       .  A
C289        C296   1.451       .  S
C290        C291   1.415   1_465  A
C290        C617   1.414   1_455  A
C291        C292   1.413   1_556  A
C291        C294   1.451       .  S
C292        C615   1.414       .  A
C292        C295   1.452       .  S
C293        N300   1.157       .  T
C294        N299   1.157   1_655  T
C295        N297   1.157       .  T
C296        N298   1.157       .  T
C301        C302   1.412       .  A
C301        C306   1.413   1_545  A
C302        C303   1.408       .  A
C302        C307   1.453       .  S
C303        C304   1.415   1_545  A
C303        C310   1.451       .  S
C304        C305   1.414       .  A
C305        C306   1.412       .  A
C305        C308   1.451       .  S
C306        C309   1.452       .  S
C307        N314   1.157       .  T
C308        N313   1.157       .  T
C309        N311   1.158       .  T
C310        N312   1.157       .  T
C315        C316   1.418   1_565  A
C315        C320   1.420       .  A
C316        C317   1.415       .  A
C316        C321   1.451       .  S
C317        C318   1.414       .  A
C317        C324   1.451       .  S
C318        C330   1.490       .  S
C318        C319   1.412       .  A
C319        C320   1.411   1_545  A
C319        C322   1.454   1_545  S
C320        C323   1.451       .  S
C321        N328   1.157       .  T
C322        N327   1.157       .  T
C323        N325   1.158       .  T
C324        N326   1.158   1_455  T
O329        C332   1.268       .  A
O329       Cd334   2.485       .  S
C330        O339   1.265   1_455  A
C330        O335   1.268   1_455  A
O331        C337   1.267       .  A
O331       Cd334   2.456       .  S
C332        O340   1.262       .  A
C332        C604   1.487       .  S
C333        O338   1.266       .  A
C333        O336   1.266       .  A
C333        C615   1.488       .  S
Cd334       O341   2.433       .  S
Cd334       O340   2.438       .  S
Cd334       O339   2.432       .  S
Cd334       O335   2.483       .  S
Cd334       O338   2.461       .  S
Cd334       O336   2.461       .  S
C337        O341   1.264       .  A
C337        C629   1.481       .  S
O342        C345   1.268       .  A
O342       Cd347   2.473       .  S
C343        O352   1.263       .  A
C343        O348   1.268       .  A
C343        C632   1.485       .  S
O344        C350   1.268       .  A
O344       Cd347   2.486       .  S
C345        O353   1.266       .  A
C345        C576   1.490       .  S
C346        O351   1.267       .  A
C346        O349   1.265       .  A
C346        C590   1.491       .  S
Cd347       O354   2.456       .  S
Cd347       O353   2.466       .  S
Cd347       O352   2.439       .  S
Cd347       O348   2.491       .  S
Cd347       O351   2.478       .  S
Cd347       O349   2.472       .  S
C350        O354   1.265       .  A
C350        C643   1.500       .  S
O355        C358   1.267       .  A
O355       Cd360   2.505       .  S
C356        O365   1.265       .  A
C356        O361   1.266       .  A
C356        C531   1.484       .  S
O357        C363   1.267       .  A
O357       Cd360   2.476       .  S
C358        O366   1.262       .  A
C358        C559   1.486       .  S
C359        O364   1.266       .  A
C359        O362   1.265       .  A
C359        C587   1.495       .  S
Cd360       O367   2.437       .  S
Cd360       O366   2.418       .  S
Cd360       O365   2.467       .  S
Cd360       O361   2.461       .  S
Cd360       O364   2.483       .  S
Cd360       O362   2.478       .  S
C363        O367   1.263       .  A
C363        C548   1.478       .  S
O368        C371   1.265       .  A
O368       Cd373   2.456       .  S
C369        O378   1.263       .  A
C369        O374   1.267       .  A
O370        C376   1.266       .  A
O370       Cd373   2.476       .  S
C371        O379   1.266       .  A
C371        C517   1.486       .  S
C372        O377   1.268       .  A
C372        O375   1.264       .  A
C372        C562   1.489   1_565  S
Cd373       O380   2.465       .  S
Cd373       O379   2.475       .  S
Cd373       O378   2.414       .  S
Cd373       O374   2.484       .  S
Cd373       O377   2.486       .  S
Cd373       O375   2.428       .  S
C376        O380   1.265       .  A
C376        C618   1.489       .  S
O381        C384   1.268       .  A
O381       Cd386   2.484       .  S
C382        O391   1.264       .  A
C382        O387   1.266       .  A
C382        C534   1.493       .  S
O383        C389   1.268       .  A
O383       Cd386   2.478       .  S
C384        O392   1.265       .  A
C385        O390   1.267       .  A
C385        O388   1.264       .  A
C385        C475   1.490       .  S
Cd386       O393   2.420       .  S
Cd386       O392   2.439       .  S
Cd386       O391   2.484       .  S
Cd386       O387   2.458       .  S
Cd386       O390   2.485       .  S
Cd386       O388   2.425       .  S
C389        O393   1.263       .  A
C389        C489   1.491       .  S
O394        C397   1.268       .  A
O394       Cd399   2.492       .  S
C395        O404   1.265       .  A
C395        O400   1.265       .  A
C395        C520   1.486       .  S
O396        C402   1.269       .  A
O396       Cd399   2.502       .  S
C397        O405   1.264       .  A
C397        C492   1.489       .  S
C398        O403   1.267       .  A
C398        O401   1.265       .  A
C398        C461   1.500       .  S
Cd399       O406   2.443       .  S
Cd399       O405   2.423       .  S
Cd399       O404   2.487       .  S
Cd399       O400   2.457       .  S
Cd399       O403   2.487       .  S
Cd399       O401   2.476       .  S
C402        O406   1.263       .  A
C402        C506   1.488       .  S
O407        C410   1.268       .  A
O407       Cd412   2.452       .  S
C408        O413   1.269       .  A
C408        C450   1.494       .  S
O409        C415   1.269       .  A
O409       Cd412   2.488       .  S
C410        O418   1.268       .  A
C410        C573   1.490       .  S
C411        O416   1.269       .  A
C411        O414   1.265       .  A
C411        C478   1.493       .  S
Cd412       O419   2.421       .  S
Cd412       O418   2.473       .  S
Cd412       O417   2.418       .  S
Cd412       O416   2.470       .  S
Cd412       O414   2.462       .  S
C415        O419   1.263       .  A
C415        C433   1.495       .  S
O420        C423   1.267       .  A
O420       Cd425   2.472       .  S
C421        O430   1.264       .  A
C421        O426   1.267       .  A
C421        C436   1.485       .  S
O422        C428   1.269       .  A
O422       Cd425   2.489       .  S
C423        O431   1.264       .  A
C423        C601   1.496       .  S
C424        O429   1.266       .  A
C424        O427   1.265       .  A
C424        C464   1.493       .  S
Cd425       O432   2.421       .  S
Cd425       O431   2.449       .  S
Cd425       O430   2.426       .  S
Cd425       O426   2.498       .  S
Cd425       O429   2.481       .  S
Cd425       O427   2.475       .  S
C428        O432   1.265       .  A
C428        C447   1.486       .  S
C433        C434   1.420       .  A
C433        C438   1.417       .  A
C434        C435   1.408       .  A
C434        C439   1.453       .  S
C435        C436   1.411       .  A
C435        C442   1.453       .  S
C436        C437   1.413       .  A
C437        C438   1.415       .  A
C437        C440   1.450       .  S
C438        C441   1.451       .  S
C439        N446   1.158       .  T
C440        N445   1.158       .  T
C441        N443   1.157       .  T
C442        N444   1.157       .  T
C447        C448   1.413       .  A
C447        C452   1.412       .  A
C448        C449   1.408       .  A
C448        C453   1.454       .  S
C449        C450   1.420       .  A
C449        C456   1.453       .  S
C450        C451   1.418       .  A
C451        C452   1.414       .  A
C451        C454   1.451       .  S
C452        C455   1.451       .  S
C453        N460   1.157       .  T
C454        N459   1.157       .  T
C455        N457   1.157       .  T
C456        N458   1.158       .  T
C461        C462   1.420       .  A
C461        C466   1.416       .  A
C462        C463   1.415   1_556  A
C462        C467   1.451       .  S
C463        C464   1.413       .  A
C463        C470   1.453       .  S
C464        C465   1.416       .  A
C465        C466   1.414   1_554  A
C465        C468   1.451       .  S
C466        C469   1.452       .  S
C467        N474   1.158       .  T
C468        N473   1.158       .  T
C469        N471   1.157       .  T
C470        N472   1.157       .  T
C475        C476   1.415       .  A
C476        C477   1.415       .  A
C476        C481   1.451       .  S
C477        C484   1.452       .  S
C478        C479   1.415       .  A
C479        C480   1.409       .  A
C479        C482   1.451       .  S
C480        C483   1.454       .  S
C481        N488   1.158       .  T
C482        N487   1.158       .  T
C483        N485   1.157       .  T
C484        N486   1.157       .  T
C489        C490   1.416       .  A
C489        C494   1.417       .  A
C490        C491   1.414       .  A
C490        C495   1.452       .  S
C491        C492   1.416       .  A
C491        C498   1.451       .  S
C492        C493   1.415       .  A
C493        C494   1.408       .  A
C493        C496   1.453       .  S
C494        C497   1.453       .  S
C495        N502   1.158       .  T
C496        N501   1.158       .  T
C497        N499   1.157       .  T
C498        N500   1.157       .  T
C503        C504   1.414       .  A
C503        C508   1.411       .  A
C504        C505   1.411       .  A
C505        C506   1.412       .  A
C505        C512   1.450       .  S
C506        C507   1.417       .  A
C507        C508   1.413       .  A
C507        C510   1.452       .  S
C508        C511   1.451       .  S
C509        N516   1.157       .  T
C510        N515   1.157       .  T
C511        N513   1.157       .  T
C512        N514   1.157       .  T
C517        C518   1.413       .  A
C517        C522   1.413       .  A
C518        C519   1.409       .  A
C518        C523   1.452       .  S
C519        C520   1.414       .  A
C519        C526   1.452       .  S
C520        C521   1.414       .  A
C521        C522   1.414       .  A
C521        C524   1.450       .  S
C522        C525   1.450       .  S
C523        N530   1.157       .  T
C524        N529   1.157       .  T
C525        N527   1.157       .  T
C526        N528   1.157       .  T
C531        C532   1.412       .  A
C531        C536   1.411       .  A
C532        C533   1.409       .  A
C532        C537   1.453       .  S
C533        C534   1.417       .  A
C533        C540   1.453       .  S
C534        C535   1.418       .  A
C535        C536   1.415       .  A
C535        C538   1.450       .  S
C536        C539   1.452       .  S
C537        N544   1.157       .  T
C538        N543   1.157       .  T
C539        N541   1.158       .  T
C540        N542   1.157       .  T
C545        C546   1.417   1_565  A
C545        C550   1.416       .  A
C546        C547   1.407       .  A
C546        C551   1.453   1_655  S
C547        C548   1.408       .  A
C547        C554   1.451       .  S
C548        C549   1.412   1_545  A
C549        C550   1.412       .  A
C549        C552   1.451       .  S
C550        C553   1.451       .  S
C552        N557   1.157       .  T
C553        N555   1.158       .  T
C554        N556   1.157       .  T
C559        C560   1.413       .  A
C559        C564   1.414   1_545  A
C560        C561   1.415       .  A
C560        C565   1.450       .  S
C561        C562   1.416       .  A
C561        C568   1.451       .  S
C562        C563   1.415   1_545  A
C563        C564   1.406       .  A
C563        C566   1.451       .  S
C564        C567   1.454       .  S
C565        N572   1.157       .  T
C566        N571   1.156       .  T
C567        N569   1.158       .  T
C568        N570   1.158       .  T
C573        C574   1.415       .  A
C573        C578   1.414       .  A
C574        C575   1.411       .  A
C574        C579   1.452       .  S
C575        C576   1.414       .  A
C575        C582   1.452       .  S
C576        C577   1.415       .  A
C577        C578   1.415       .  A
C577        C580   1.451       .  S
C578        C581   1.451       .  S
C579        N586   1.157       .  T
C580        N585   1.157       .  T
C581        N583   1.157       .  T
C582        N584   1.157       .  T
C587        C588   1.417       .  A
C587        C592   1.415       .  A
C588        C589   1.414   1_545  A
C588        C593   1.451       .  S
C589        C590   1.413       .  A
C589        C596   1.451       .  S
C590        C591   1.415       .  A
C591        C592   1.413   1_565  A
C591        C594   1.452       .  S
C592        C595   1.451       .  S
C593        N600   1.157       .  T
C594        N599   1.157       .  T
C595        N597   1.157       .  T
C596        N598   1.157       .  T
C601        C602   1.418       .  A
C601        C606   1.420       .  A
C602        C603   1.411       .  A
C602        C607   1.453       .  S
C603        C604   1.415       .  A
C603        C610   1.453       .  S
C604        C605   1.411       .  A
C605        C606   1.412       .  A
C605        C608   1.452       .  S
C606        C609   1.452       .  S
C607        N614   1.158       .  T
C608        N613   1.157       .  T
C609        N611   1.157       .  T
C610        N612   1.157       .  T
C615        C616   1.414   1_545  A
C616        C617   1.411   1_554  A
C616        C621   1.452       .  S
C617        C624   1.451   1_655  S
C618        C619   1.415   1_565  A
C619        C620   1.413   1_556  A
C619        C622   1.451       .  S
C620        C623   1.452       .  S
C621        N628   1.157       .  T
C622        N627   1.157       .  T
C623        N625   1.157       .  T
C624        N626   1.157       .  T
C629        C630   1.412       .  A
C629        C634   1.413   1_545  A
C630        C631   1.408       .  A
C630        C635   1.453       .  S
C631        C632   1.415   1_545  A
C631        C638   1.451       .  S
C632        C633   1.414       .  A
C633        C634   1.412       .  A
C633        C636   1.451       .  S
C634        C637   1.452       .  S
C635        N642   1.157       .  T
C636        N641   1.157       .  T
C637        N639   1.158       .  T
C638        N640   1.157       .  T
C643        C644   1.418   1_565  A
C643        C648   1.420       .  A
C644        C645   1.415       .  A
C644        C649   1.451       .  S
C645        C646   1.414       .  A
C645        C652   1.451       .  S
C646        C647   1.412       .  A
C647        C648   1.411   1_545  A
C647        C650   1.454   1_545  S
C648        C651   1.451       .  S
C649        N656   1.157       .  T
C650        N655   1.157       .  T
C651        N653   1.158       .  T
C652        N654   1.158       .  T
