geometry optimzed in LAMMPS
_audit_creation_date              2020-11-30 
_audit_creation_method            'lammps2cif' 
_symmetry_space_group_name_H-M    'P1' 
_symmetry_Int_Tables_number       1 
_symmetry_cell_setting            triclinic 
loop_ 
_symmetry_equiv_pos_as_xyz 
  x,y,z 
_cell_length_a                    33.33455885 
_cell_length_b                    33.429107134614554 
_cell_length_c                    32.822062412878275 
_cell_angle_alpha                 89.02699251868069 
_cell_angle_beta                  91.19127922923057 
_cell_angle_gamma                 89.69314627815656 
loop_ 
_atom_site_label 
_atom_site_type_symbol 
_atom_site_fract_x 
_atom_site_fract_y 
_atom_site_fract_z 
_atom_site_charge 
C1          C  0.55974646  0.91262451  0.73314217     0.05900
C2          C  0.51990401  0.90263246  0.72211158    -0.10300
C3          C  0.50789904  0.86281204  0.71868312     0.03400
C4          C  0.53647368  0.83243806  0.72508058    -0.08800
C5          C  0.57696439  0.84129726  0.73351840     0.05900
C6          C  0.58877243  0.88166196  0.73728207    -0.08200
H7          H  0.49776196  0.92604674  0.71651308     0.11500
H8          H  0.52751436  0.80152509  0.72169602     0.09000
H9          H  0.61968367  0.88876763  0.74478809     0.08800
C10         C  0.54363507  0.02440576  0.76016111     0.05900
C11         C  0.50756422  0.04280952  0.77177320    -0.10300
C12         C  0.50346118  0.08458587  0.77263944     0.03400
C13         C  0.53643664  0.10821897  0.76290762    -0.08800
C14         C  0.57297891  0.09093069  0.75190698     0.05900
C15         C  0.57673133  0.04884819  0.75028389    -0.08200
H16         H  0.48245161  0.02425307  0.78023884     0.11500
H17         H  0.53369340  0.14054422  0.76380849     0.09000
H18         H  0.60490680  0.03566101  0.74152416     0.08800
C19         C  0.92401024  0.74168250  0.55707319     0.05900
C20         C  0.91351379  0.73408060  0.51638498    -0.10300
C21         C  0.87518394  0.72081876  0.50569675     0.03400
C22         C  0.84708068  0.71474583  0.53627351    -0.08800
C23         C  0.85733777  0.72047134  0.57773947     0.05900
C24         C  0.89599453  0.73468453  0.58796967    -0.08200
H25         H  0.93532872  0.73892946  0.49274902     0.11500
H26         H  0.81723207  0.70499603  0.52760739     0.09000
H27         H  0.90414830  0.74028523  0.61947007     0.08800
C28         C  0.03674885  0.74251647  0.56947160     0.05900
C29         C  0.04563742  0.75392907  0.52906258    -0.10300
C30         C  0.08524604  0.75465027  0.51579313     0.03400
C31         C  0.11646288  0.74487914  0.54342915    -0.08800
C32         C  0.10847267  0.73523760  0.58416005     0.05900
C33         C  0.06851738  0.73344291  0.59708900    -0.08200
H34         H  0.02166684  0.76023443  0.50705735     0.11500
H35         H  0.14730746  0.74648077  0.53369877     0.09000
H36         H  0.06222289  0.72478271  0.62825937     0.08800
C37         C  0.53999471  0.73090499  0.41128137     0.05900
C38         C  0.56709583  0.73954865  0.38012086    -0.10300
C39         C  0.60827533  0.73281252  0.38663236     0.03400
C40         C  0.62255488  0.71722102  0.42403585    -0.08800
C41         C  0.59638539  0.70884750  0.45566756     0.05900
C42         C  0.55505504  0.71590458  0.44924265    -0.08200
H43         H  0.55628142  0.75170948  0.35108091     0.11500
H44         H  0.65448612  0.71192660  0.42861887     0.09000
H45         H  0.53491089  0.71009466  0.47396944     0.08800
C46         C  0.42705049  0.73960188  0.42946795     0.05900
C47         C  0.41402418  0.74798437  0.46866826    -0.10300
C48         C  0.37518315  0.76198048  0.47498549     0.03400
C49         C  0.34856709  0.76682891  0.44155416    -0.08800
C50         C  0.36135426  0.75928235  0.40176183     0.05900
C51         C  0.40099455  0.74620727  0.39566285    -0.08200
H52         H  0.43441095  0.74360324  0.49458254     0.11500
H53         H  0.31838399  0.77780322  0.44625900     0.09000
H54         H  0.41100937  0.74007673  0.36519327     0.08800
C55         C  0.74731258  0.52747718  0.91370046     0.05900
C56         C  0.75108389  0.56089243  0.88694000    -0.10300
C57         C  0.75205935  0.55528123  0.84432539     0.03400
C58         C  0.74989936  0.51638508  0.82894277    -0.08800
C59         C  0.74369369  0.48342368  0.85472497     0.05900
C60         C  0.74256794  0.48917642  0.89695087    -0.08200
H61         H  0.75279892  0.59084880  0.89881863     0.11500
H62         H  0.75034439  0.51200945  0.79628143     0.09000
H63         H  0.73869045  0.46343183  0.91698256     0.08800
C64         C  0.76797310  0.55572282  0.02753604     0.05900
C65         C  0.77066532  0.59050837  0.05143823    -0.10300
C66         C  0.77474726  0.58731846  0.09424742     0.03400
C67         C  0.77819947  0.54930669  0.11277654    -0.08800
C68         C  0.77618665  0.51459316  0.08997302     0.05900
C69         C  0.77124058  0.51784766  0.04736676    -0.08200
H70         H  0.76873383  0.61981928  0.03692354     0.11500
H71         H  0.78263419  0.54670519  0.14555957     0.09000
H72         H  0.77191132  0.49085432  0.02971499     0.08800
Zn73       Zn  0.63420915  0.31651988  0.81840932     1.49700
Zn74       Zn  0.64612351  0.25817076  0.74391502     1.49400
Zn75       Zn  0.72182226  0.30713415  0.78210979     1.49100
Zn76       Zn  0.68039534  0.23479744  0.83289181     1.49500
O77         O  0.67120020  0.27890924  0.79404209    -1.81400
O78         O  0.58736121  0.32949091  0.78112372    -0.72000
O79         O  0.67516119  0.28002886  0.69406333    -0.71800
O80         O  0.72293070  0.36215481  0.80904138    -0.71300
O81         O  0.58913061  0.27953187  0.73736296    -0.72000
O82         O  0.66230999  0.36683189  0.83550612    -0.71600
O83         O  0.72490732  0.31669952  0.72012432    -0.72200
O84         O  0.73929350  0.23130506  0.84653033    -0.71600
O85         O  0.64090857  0.19702757  0.74589740    -0.72400
O86         O  0.77034971  0.27649968  0.80771822    -0.71700
O87         O  0.66184505  0.18244216  0.80925137    -0.72200
O88         O  0.64878954  0.24121442  0.88523894    -0.72100
O89         O  0.61019912  0.29363460  0.86913528    -0.71900
C90         C  0.57134220  0.30946162  0.75248098     0.79900
C91         C  0.70401005  0.30462540  0.68955593     0.80400
C92         C  0.69713389  0.38094389  0.82977125     0.79300
C93         C  0.77120172  0.24845720  0.83477589     0.79700
C94         C  0.64647559  0.17187988  0.77528488     0.80800
C95         C  0.62018512  0.26509777  0.89334592     0.79900
Zn96       Zn  0.27972441  0.74106024  0.65382471     1.49700
Zn97       Zn  0.33271496  0.82128055  0.65119681     1.49400
Zn98       Zn  0.24876179  0.81908444  0.69867116     1.49100
Zn99       Zn  0.32620938  0.77076531  0.73408956     1.49500
O100        O  0.29679956  0.78819190  0.68446962    -1.81400
O101        O  0.29837769  0.74485159  0.59584190    -0.72000
O102        O  0.30970059  0.87676477  0.64351347    -0.71800
O103        O  0.19767600  0.79236725  0.67892950    -0.71300
O104        O  0.33831189  0.79793748  0.59486590    -0.72000
O105        O  0.21954263  0.73737102  0.64922153    -0.71600
O106        O  0.24958161  0.87462582  0.67173582    -0.72200
O107        O  0.30008919  0.79204059  0.78467819    -0.71600
O108        O  0.38820737  0.82711538  0.67729758    -0.72400
O109        O  0.24685678  0.82573502  0.76006101    -0.71700
O110        O  0.38333230  0.79125604  0.73452915    -0.72200
O111        O  0.33140645  0.71061783  0.73682595    -0.72100
O112        O  0.30279107  0.68994584  0.67914632    -0.71900
C113        C  0.32195011  0.76830088  0.57718165     0.79900
C114        C  0.27642847  0.89321695  0.65188220     0.80400
C115        C  0.19104927  0.76056762  0.65913133     0.79300
C116        C  0.26929193  0.81394037  0.78998269     0.79700
C117        C  0.40354279  0.81318713  0.71052365     0.80800
C118        C  0.32254079  0.68280950  0.71214419     0.79900
C119        C  0.03722159  0.53258850  0.27577970     0.05900
C120        C  0.07129499  0.55724281  0.27311575    -0.10300
C121        C  0.06673536  0.59921674  0.27256753     0.03400
C122        C  0.02793674  0.61602837  0.27410483    -0.08800
C123        C  0.99430354  0.59152433  0.27781673     0.05900
C124        C  0.99927420  0.55009687  0.27927205    -0.08200
H125        H  0.10098372  0.54401076  0.27213857     0.11500
H126        H  0.02411943  0.64819660  0.27528034     0.09000
H127        H  0.97308593  0.53121472  0.28231914     0.08800
C128        C  0.04926042  0.42635592  0.23716096     0.05900
C129        C  0.00841726  0.41536672  0.23382727    -0.10300
C130        C  0.99703290  0.37765632  0.21961538     0.03400
C131        C  0.02746228  0.35054788  0.20945907    -0.08800
C132        C  0.06806192  0.36110605  0.21191485     0.05900
C133        C  0.07903356  0.39906463  0.22567161    -0.08200
H134        H  0.98516487  0.43691805  0.24045725     0.11500
H135        H  0.02038317  0.32096322  0.19890296     0.09000
H136        H  0.11032037  0.40770358  0.22627976     0.08800
Zn137      Zn  0.74754401  0.64677232  0.28393568     1.49700
Zn138      Zn  0.82047537  0.69507491  0.24429256     1.49400
Zn139      Zn  0.77528180  0.72889854  0.32303703     1.49100
Zn140      Zn  0.83048528  0.65237131  0.33285619     1.49500
O141        O  0.79346599  0.68085939  0.29566072    -1.81400
O142        O  0.74548488  0.63407846  0.22436825    -0.72000
O143        O  0.82535134  0.75542815  0.23908422    -0.71800
O144        O  0.71489232  0.73178086  0.32376325    -0.71300
O145        O  0.79323590  0.66954193  0.19434185    -0.72000
O146        O  0.69585696  0.67313320  0.29905142    -0.71600
O147        O  0.79901665  0.77775879  0.29640102    -0.72200
O148        O  0.83919871  0.68055179  0.38612133    -0.71600
O149        O  0.87785119  0.67381148  0.24578179    -0.72400
O150        O  0.79423936  0.72972442  0.38204355    -0.71700
O151        O  0.88311841  0.64501381  0.30719347    -0.72200
O152        O  0.81106036  0.59706680  0.34588580    -0.72100
O153        O  0.75111971  0.59395609  0.31529847    -0.71900
C154        C  0.76458950  0.64434746  0.19270194     0.79900
C155        C  0.81812958  0.78365341  0.26362180     0.80400
C156        C  0.68765234  0.70649579  0.31503985     0.79300
C157        C  0.82101516  0.70985620  0.40190930     0.79700
C158        C  0.89788645  0.65416422  0.27292335     0.80800
C159        C  0.77897390  0.57830523  0.33754201     0.79900
C160        C  0.93814424  0.23672194  0.92100869     0.05900
C161        C  0.91335194  0.24372860  0.88617414    -0.10300
C162        C  0.87222058  0.25224689  0.89082467     0.03400
C163        C  0.85695175  0.25621460  0.93019562    -0.08800
C164        C  0.88152007  0.25058026  0.96505871     0.05900
C165        C  0.92179173  0.23994412  0.95994510    -0.08200
H166        H  0.92534908  0.24049987  0.85598581     0.11500
H167        H  0.82548917  0.26321025  0.93299333     0.09000
H168        H  0.94091211  0.23455087  0.98664505     0.08800
C169        C  0.05283682  0.23448492  0.90296136     0.05900
C170        C  0.06860012  0.22061708  0.94109213    -0.10300
C171        C  0.11028037  0.21723539  0.94844600     0.03400
C172        C  0.13625032  0.22796829  0.91734220    -0.08800
C173        C  0.12156543  0.24208778  0.87937585     0.05900
C174        C  0.07987501  0.24512562  0.87210744    -0.08200
H175        H  0.04872023  0.21296064  0.96547560     0.11500
H176        H  0.16839016  0.22547686  0.92278668     0.09000
H177        H  0.06860336  0.25634434  0.84287034     0.08800
Zn178      Zn  0.75832656  0.31375262  0.11572531     1.49700
Zn179      Zn  0.75805037  0.26941694  0.20401530     1.49400
Zn180      Zn  0.83646391  0.27081517  0.14896010     1.49100
Zn181      Zn  0.80838903  0.35171802  0.18921885     1.49500
O182        O  0.79001743  0.30158541  0.16502466    -1.81400
O183        O  0.70407542  0.28940276  0.11955393    -0.72000
O184        O  0.78608513  0.21633773  0.21839568    -0.71800
O185        O  0.84151617  0.26659762  0.08838123    -0.71300
O186        O  0.70365638  0.25509561  0.17832340    -0.72000
O187        O  0.78454684  0.29358605  0.06499191    -0.71600
O188        O  0.83438008  0.21579005  0.17268357    -0.72200
O189        O  0.86925884  0.35321235  0.19641715    -0.71600
O190        O  0.74954326  0.30068609  0.25636412    -0.72400
O191        O  0.88738911  0.29569947  0.16917143    -0.71700
O192        O  0.78488916  0.35611485  0.24532755    -0.72200
O193        O  0.79147463  0.39977668  0.15308997    -0.72100
O194        O  0.75264951  0.37259553  0.10526352    -0.71900
C195        C  0.68676703  0.26622013  0.14476660     0.79900
C196        C  0.81486975  0.19870829  0.20092539     0.80400
C197        C  0.81817439  0.27683550  0.05888314     0.79300
C198        C  0.89625565  0.32817093  0.18671953     0.79700
C199        C  0.76280457  0.33446649  0.26807540     0.80800
C200        C  0.76911960  0.40294815  0.12107237     0.79900
C201        C  0.42126573  0.21986208  0.06171011     0.05900
C202        C  0.39337933  0.21023018  0.09224147    -0.10300
C203        C  0.35464863  0.19682416  0.08106222     0.03400
C204        C  0.34405714  0.19335499  0.03980101    -0.08800
C205        C  0.37119216  0.20314439  0.00931123     0.05900
C206        C  0.40960810  0.21559760  0.02051029    -0.08200
H207        H  0.40215292  0.21170103  0.12413659     0.11500
H208        H  0.31487436  0.18139674  0.03187483     0.09000
H209        H  0.43097419  0.22016388  0.99652023     0.08800
C210        C  0.53100455  0.24835334  0.04510186     0.05900
C211        C  0.55489918  0.25500440  0.08007130    -0.10300
C212        C  0.59685861  0.25542436  0.07716048     0.03400
C213        C  0.61480077  0.24798282  0.03970586    -0.08800
C214        C  0.59138945  0.24270726  0.00440165     0.05900
C215        C  0.54941221  0.24289600  0.00735083    -0.08200
H216        H  0.54100426  0.26212049  0.10862479     0.11500
H217        H  0.64716642  0.24975505  0.03740696     0.09000
H218        H  0.53091208  0.23883527  0.98019919     0.08800
C219        C  0.24157320  0.91933863  0.93099640     0.05900
C220        C  0.24517399  0.95588851  0.90963573    -0.10300
C221        C  0.24196489  0.95797256  0.86703070     0.03400
C222        C  0.23567249  0.92297033  0.84550672    -0.08800
C223        C  0.23273553  0.88596531  0.86579653     0.05900
C224        C  0.23546792  0.88388040  0.90883657    -0.08200
H225        H  0.25139281  0.98283129  0.92646609     0.11500
H226        H  0.23416214  0.92434450  0.81244642     0.09000
H227        H  0.23369080  0.85521742  0.92452876     0.08800
C228        C  0.22423410  0.91116108  0.04666933     0.05900
C229        C  0.21713074  0.95196151  0.05451691    -0.10300
C230        C  0.21467575  0.96584692  0.09435484     0.03400
C231        C  0.22086421  0.93867688  0.12695446    -0.08800
C232        C  0.22669407  0.89773336  0.12018589     0.05900
C233        C  0.22760971  0.88380707  0.07980388    -0.08200
H234        H  0.21243869  0.97304625  0.02939171     0.11500
H235        H  0.22061072  0.94919977  0.15798109     0.09000
H236        H  0.23227327  0.85229451  0.07424394     0.08800
Zn237      Zn  0.25742466  0.15869503  0.84409744     1.49700
Zn238      Zn  0.27184263  0.20466082  0.75861966     1.49400
Zn239      Zn  0.34589853  0.17894030  0.82137444     1.49100
Zn240      Zn  0.30065917  0.11189679  0.77515643     1.49500
O241        O  0.29377957  0.16418840  0.79892035    -1.81400
O242        O  0.20711997  0.18826007  0.83295472    -0.72000
O243        O  0.31249191  0.25193237  0.75324719    -0.71800
O244        O  0.34525494  0.18454648  0.88216048    -0.71300
O245        O  0.21665163  0.22583287  0.77735147    -0.72000
O246        O  0.28050974  0.17992830  0.89574802    -0.71600
O247        O  0.35926100  0.23205162  0.79890343    -0.72200
O248        O  0.35851391  0.09495945  0.77204699    -0.71600
O249        O  0.26081139  0.17694424  0.70348510    -0.72400
O250        O  0.39120924  0.14156450  0.80631342    -0.71700
O251        O  0.27876198  0.11399215  0.71862041    -0.72200
O252        O  0.27299878  0.06854742  0.80723422    -0.72100
O253        O  0.24382419  0.10183370  0.85656291    -0.71900
C254        C  0.19507199  0.21455077  0.80713615     0.79900
C255        C  0.34559057  0.25747305  0.77294293     0.80400
C256        C  0.31648251  0.18639345  0.90696265     0.79300
C257        C  0.39105979  0.10949663  0.78593291     0.79700
C258        C  0.26470235  0.14027870  0.69359356     0.80800
C259        C  0.25236140  0.06924414  0.83942088     0.79900
C260        C  0.19610089  0.05089339  0.44205116     0.05900
C261        C  0.19284065  0.07941722  0.40983817    -0.10300
C262        C  0.18496248  0.06668279  0.36969616     0.03400
C263        C  0.18252056  0.02562906  0.36183986    -0.08800
C264        C  0.18688849  0.99705587  0.39323819     0.05900
C265        C  0.19307856  0.00983802  0.43316052    -0.08200
H266        H  0.19427677  0.11106440  0.41624513     0.11500
H267        H  0.17553942  0.01591895  0.33114864     0.09000
H268        H  0.19648493  0.98746224  0.45728133     0.08800
C269        C  0.20666644  0.03850538  0.55744370     0.05900
C270        C  0.20734422  0.99990268  0.57536777    -0.10300
C271        C  0.22967408  0.99182266  0.61112065     0.03400
C272        C  0.24935174  0.02326496  0.63052747    -0.08800
C273        C  0.24702091  0.06251434  0.61476693     0.05900
C274        C  0.22598841  0.07024245  0.57773924    -0.08200
H275        H  0.19271100  0.97537142  0.55990194     0.11500
H276        H  0.26619576  0.01721828  0.65861361     0.12200
H277        H  0.22535165  0.10019048  0.56463538     0.08800
Zn278      Zn  0.11297491  0.20180937  0.15492307     1.49700
Zn279      Zn  0.19512111  0.20074662  0.20853113     1.49400
Zn280      Zn  0.13892064  0.12236242  0.19970462     1.49100
Zn281      Zn  0.18606588  0.15284214  0.12125039     1.49500
O282        O  0.15916647  0.16954043  0.17123555    -1.81400
O283        O  0.11659911  0.25527373  0.17877231    -0.72000
O284        O  0.20316343  0.17085005  0.26415205    -0.71800
O285        O  0.07847971  0.12091335  0.20281843    -0.71300
O286        O  0.17052329  0.25654251  0.21956961    -0.72000
O287        O  0.06106199  0.17841163  0.17273837    -0.71600
O288        O  0.16064329  0.12045480  0.25653134    -0.72200
O289        O  0.18998014  0.09189067  0.11829709    -0.71600
O290        O  0.24982234  0.20834083  0.18133272    -0.72400
O291        O  0.15726448  0.07189905  0.17328447    -0.71700
O292        O  0.24261284  0.17394143  0.12393773    -0.72200
O293        O  0.15752817  0.17489253  0.06873779    -0.72100
O294        O  0.10741158  0.20920236  0.09498999    -0.71900
C295        C  0.13909316  0.27333306  0.20408088     0.79900
C296        C  0.18577035  0.13969049  0.27823489     0.80400
C297        C  0.05177985  0.14600702  0.19077472     0.79300
C298        C  0.17717545  0.06411213  0.14172346     0.79700
C299        C  0.26381793  0.19511813  0.14813157     0.80800
C300        C  0.12628055  0.19703346  0.06440231     0.79900
C301        C  0.91726556  0.92968071  0.25273315     0.05900
C302        C  0.95424864  0.91266786  0.26479170    -0.10300
C303        C  0.95597879  0.87649380  0.28679323     0.03400
C304        C  0.92040012  0.85689232  0.29634102    -0.08800
C305        C  0.88333005  0.87206533  0.28191262     0.05900
C306        C  0.88157865  0.90889307  0.26062161    -0.08200
H307        H  0.98187259  0.92820067  0.25801487     0.11500
H308        H  0.92172384  0.82843715  0.31270039     0.09000
H309        H  0.85294494  0.92072280  0.24967691     0.08800
C310        C  0.90230121  0.04116362  0.22886790     0.05900
C311        C  0.87141980  0.06843854  0.21840067    -0.10300
C312        C  0.88095393  0.10773449  0.20674998     0.03400
C313        C  0.92102408  0.11999316  0.20631219    -0.08800
C314        C  0.95229809  0.09333687  0.21710621     0.05900
C315        C  0.94247990  0.05425123  0.22904646    -0.08200
H316        H  0.84042753  0.05880912  0.21788146     0.11500
H317        H  0.92706889  0.15056842  0.19733645     0.09000
H318        H  0.96646348  0.03392027  0.23844680     0.08800
Zn319      Zn  0.21414900  0.82075597  0.29470483     1.49700
Zn320      Zn  0.17404996  0.74026920  0.33115791     1.49400
Zn321      Zn  0.13093943  0.82477576  0.34321834     1.49100
Zn322      Zn  0.13402953  0.78630726  0.25473714     1.49500
O323        O  0.16356820  0.79309651  0.30602064    -1.81400
O324        O  0.26099188  0.79040719  0.32274595    -0.72000
O325        O  0.15100276  0.73712085  0.38758214    -0.71800
O326        O  0.15731952  0.87774362  0.35500025    -0.71300
O327        O  0.23337751  0.73256580  0.34179086    -0.72000
O328        O  0.21250907  0.87659149  0.31805182    -0.71600
O329        O  0.12177533  0.79604260  0.39665044    -0.72200
O330        O  0.08255296  0.81822991  0.25405360    -0.71600
O331        O  0.14804269  0.69506010  0.29893682    -0.72400
O332        O  0.07670820  0.83773543  0.31809261    -0.71700
O333        O  0.11800213  0.72907137  0.24794480    -0.72200
O334        O  0.16541566  0.80463532  0.20621388    -0.72100
O335        O  0.22171601  0.82907668  0.23324278    -0.71900
C336        C  0.26345632  0.75587360  0.34003757     0.79900
C337        C  0.13164097  0.76117966  0.40956768     0.80400
C338        C  0.18879037  0.89453891  0.34169386     0.79300
C339        C  0.06284586  0.83508072  0.28182126     0.79700
C340        C  0.12500600  0.69645148  0.26736857     0.80800
C341        C  0.19894076  0.82212997  0.20236411     0.79900
C342        C  0.42286842  0.41968899  0.72101193     0.05900
C343        C  0.39133212  0.39198575  0.72399880    -0.10300
C344        C  0.39997947  0.35131744  0.73249545     0.03400
C345        C  0.44049405  0.33893912  0.73705708    -0.08800
C346        C  0.47178115  0.36672967  0.73518719     0.05900
C347        C  0.46262167  0.40682774  0.72695823    -0.08200
H348        H  0.36050917  0.40200627  0.72012467     0.11500
H349        H  0.44764266  0.30780226  0.74341744     0.09000
H350        H  0.48673084  0.42847675  0.72571756     0.08800
C351        C  0.41040184  0.52994470  0.73948716     0.05900
C352        C  0.38182463  0.56058526  0.74400907    -0.10300
C353        C  0.39441058  0.60055658  0.74733201     0.03400
C354        C  0.43539627  0.60955434  0.74653897    -0.08800
C355        C  0.46408911  0.57951849  0.74046245     0.05900
C356        C  0.45144794  0.53978775  0.73821494    -0.08200
H357        H  0.35018076  0.55345484  0.74476522     0.11500
H358        H  0.44465228  0.64038984  0.74957842     0.09000
H359        H  0.47376737  0.51642116  0.73496459     0.08800
C360        C  0.72272198  0.42301423  0.42012163     0.05900
C361        C  0.73887606  0.39440783  0.39359385    -0.10300
C362        C  0.75482073  0.40717489  0.35595030     0.03400
C363        C  0.75573707  0.44806956  0.34610063    -0.08800
C364        C  0.73896071  0.47631025  0.37161823     0.05900
C365        C  0.72159621  0.46361427  0.40795305    -0.08200
H366        H  0.73913356  0.36296443  0.40209390     0.11500
H367        H  0.76865596  0.45802477  0.31762005     0.09000
H368        H  0.70888676  0.48573164  0.42782783     0.08800
C369        C  0.72060973  0.40291772  0.53496247     0.05900
C370        C  0.71066750  0.44233309  0.54592931    -0.10300
C371        C  0.70700958  0.45307742  0.58673907     0.03400
C372        C  0.71448837  0.42394731  0.61730390    -0.08800
C373        C  0.72403633  0.38432023  0.60762879     0.05900
C374        C  0.72726417  0.37377604  0.56623356    -0.08200
H375        H  0.70698105  0.46542937  0.52257743     0.11500
H376        H  0.71349787  0.43189548  0.64908974     0.09000
H377        H  0.73570648  0.34355404  0.55850616     0.08800
Zn378      Zn  0.68024633  0.63800334  0.61761125     1.49700
Zn379      Zn  0.70657753  0.68909162  0.69837423     1.49400
Zn380      Zn  0.61554597  0.68929342  0.66213184     1.49100
Zn381      Zn  0.64860914  0.61008021  0.70406617     1.49500
O382        O  0.66354487  0.65682245  0.67088169    -1.81400
O383        O  0.73627553  0.65593261  0.60904777    -0.72000
O384        O  0.68550631  0.74657879  0.71039583    -0.71800
O385        O  0.60263715  0.69963455  0.60291538    -0.71300
O386        O  0.75637746  0.69302192  0.66138210    -0.72000
O387        O  0.64589223  0.66137479  0.57067728    -0.71600
O388        O  0.62212494  0.74170814  0.68849422    -0.72200
O389        O  0.58894755  0.60783631  0.71544131    -0.71600
O390        O  0.72267448  0.66101940  0.75345451    -0.72400
O391        O  0.56691104  0.66405755  0.68571177    -0.71700
O392        O  0.67884030  0.61087783  0.75732588    -0.72200
O393        O  0.66337475  0.55847890  0.67667970    -0.72100
O394        O  0.68176402  0.57741704  0.61467458    -0.71900
C395        C  0.76267800  0.67708222  0.62688244     0.79900
C396        C  0.65018247  0.76133101  0.70553171     0.80400
C397        C  0.61660159  0.68612244  0.57014170     0.79300
C398        C  0.56052049  0.63199253  0.70572705     0.79700
C399        C  0.70763970  0.63101937  0.77242410     0.80800
C400        C  0.67545351  0.55008601  0.64128414     0.79900
C401        C  0.69764387  0.49561647  0.59617359    -0.13700
C402        C  0.68273720  0.50753016  0.63188757    -0.28900
H403        H  0.70275424  0.51797958  0.57244988     0.15300
H404        H  0.67579088  0.48569947  0.65547033     0.15900
C405        C  0.70659205  0.41311482  0.46097169    -0.13700
C406        C  0.72807167  0.39429276  0.49105167    -0.28900
H407        H  0.68008042  0.42991356  0.46931159     0.15300
H408        H  0.75468209  0.37720283  0.48370925     0.15900
C409        C  0.51875809  0.62340509  0.71674003    -0.13700
C410        C  0.50714882  0.58892042  0.73447502    -0.28900
H411        H  0.49646528  0.64567461  0.70735853     0.15300
H412        H  0.52932991  0.56568223  0.74127615     0.15900
C413        C  0.41673155  0.46263680  0.71178153    -0.13700
C414        C  0.39832205  0.48728381  0.73747181    -0.28900
H415        H  0.43651073  0.47562161  0.68924251     0.15300
H416        H  0.37874575  0.47529491  0.76068291     0.15900
C417        C  0.02337388  0.85255179  0.27105287    -0.13700
C418        C  0.99504990  0.85853085  0.29882750    -0.28900
H419        H  0.01691322  0.85974034  0.23914942     0.15300
H420        H  0.99973493  0.84820209  0.33014356     0.15900
C421        C  0.91805470  0.96915174  0.23198903    -0.13700
C422        C  0.89275738  0.99921062  0.24045883    -0.28900
H423        H  0.94405610  0.97535669  0.21353345     0.15300
H424        H  0.86625663  0.99350468  0.25831406     0.15900
C425        C  0.99551230  0.10436314  0.21499803    -0.13700
C426        C  0.00886066  0.13777229  0.19637860    -0.28900
H427        H  0.01741687  0.08297233  0.22737204     0.15300
H428        H  0.98819305  0.15946113  0.18278881     0.15900
C429        C  0.19736589  0.93644018  0.35232604    -0.13700
C430        C  0.18171836  0.95386213  0.38509577    -0.28900
H431        H  0.21676794  0.95356471  0.33243771     0.15300
H432        H  0.16502601  0.93595473  0.40680345     0.15900
C433        C  0.17280649  0.09409761  0.33569458    -0.13700
C434        C  0.19543943  0.12371760  0.32001235    -0.28900
H435        H  0.14630032  0.08471337  0.31860221     0.15300
H436        H  0.22256681  0.13324586  0.33586645     0.15900
C437        C  0.20435911  0.06292335  0.48497126    -0.13700
C438        C  0.18780489  0.04256186  0.51619011    -0.28900
H439        H  0.22785622  0.08459954  0.49071551     0.15300
H440        H  0.16409911  0.02139951  0.50912286     0.15900
C441        C  0.37122053  0.29288825  0.76691615    -0.13700
C442        C  0.36714662  0.32158871  0.73793378    -0.28900
H443        H  0.39715467  0.29411826  0.78750935     0.15300
H444        H  0.34053799  0.32298552  0.71830107     0.15900
C445        C  0.25109828  0.12606636  0.65306335    -0.13700
C446        C  0.26882862  0.09330835  0.63810631    -0.28900
H447        H  0.22284470  0.13717073  0.64013212     0.15300
H448        H  0.29690607  0.08323537  0.65248748     0.15900
C449        C  0.23075404  0.87107781  0.15676648    -0.13700
C450        C  0.20902748  0.83762578  0.16123922    -0.28900
H451        H  0.24489451  0.88376611  0.18372573     0.15300
H452        H  0.19164271  0.82677110  0.13536479     0.15900
C453        C  0.20601610  0.00897426  0.10112851    -0.13700
C454        C  0.18566224  0.02156490  0.13354198    -0.28900
H455        H  0.21517152  0.03062811  0.07811467     0.15300
H456        H  0.17439164  0.99976811  0.15531878     0.15900
C457        C  0.24876719  0.99575969  0.84413348    -0.13700
C458        C  0.23950742  0.03170019  0.85901765    -0.28900
H459        H  0.26249197  0.99386167  0.81446503     0.15300
H460        H  0.22388360  0.03379789  0.88762138     0.15900
C461        C  0.24589265  0.92122808  0.97614702    -0.13700
C462        C  0.22708823  0.89786213  0.00355274    -0.28900
H463        H  0.26195406  0.94707762  0.98763168     0.15300
H464        H  0.21155415  0.87100581  0.99411274     0.15900
C465        C  0.32489978  0.18184286  0.11037460    -0.13700
C466        C  0.30509927  0.20573584  0.13577776    -0.28900
H467        H  0.31186240  0.15294344  0.10332764     0.15300
H468        H  0.31677362  0.23508260  0.14307107     0.15900
C469        C  0.32441977  0.19537363  0.94998680    -0.13700
C470        C  0.36188492  0.19740349  0.96548667    -0.28900
H471        H  0.29865824  0.19943584  0.96915981     0.15300
H472        H  0.38704356  0.19462470  0.94513803     0.15900
C473        C  0.48669760  0.25029763  0.04546562    -0.13700
C474        C  0.46394994  0.22959671  0.07199486    -0.28900
H475        H  0.47251579  0.26485643  0.01905598     0.15300
H476        H  0.47778728  0.21578833  0.09902501     0.15900
C477        C  0.64724774  0.25022748  0.13264935    -0.13700
C478        C  0.62228799  0.27282744  0.10929893    -0.28900
H479        H  0.64194603  0.21837039  0.13654993     0.15300
H480        H  0.62829716  0.30462293  0.10578826     0.15900
C481        C  0.85071492  0.13613724  0.19037043    -0.13700
C482        C  0.82809989  0.15839071  0.21478390    -0.28900
H483        H  0.85485981  0.14601780  0.15901384     0.15300
H484        H  0.82426100  0.14956504  0.24646518     0.15900
C485        C  0.77186294  0.38006306  0.32546469    -0.13700
C486        C  0.75129253  0.34989093  0.30844564    -0.28900
H487        H  0.79871530  0.39064900  0.31051470     0.15300
H488        H  0.72390548  0.33916396  0.32216109     0.15900
C489        C  0.12776501  0.20271370  0.98832507    -0.13700
C490        C  0.10985755  0.20945813  0.02385597    -0.28900
H491        H  0.15705987  0.18827148  0.98863197     0.15300
H492        H  0.08195107  0.22635885  0.02378356     0.15900
C493        C  0.15527311  0.23208031  0.81435303    -0.13700
C494        C  0.15163996  0.25307122  0.84860307    -0.28900
H495        H  0.12963983  0.21524367  0.80319524     0.15300
H496        H  0.17870429  0.26700140  0.86076506     0.15900
C497        C  0.86647790  0.25491096  0.00730305    -0.13700
C498        C  0.83037653  0.27044089  0.01647067    -0.28900
H499        H  0.88682227  0.24609534  0.03221064     0.15300
H500        H  0.80952663  0.28071690  0.99279573     0.15900
C501        C  0.98064894  0.22339391  0.91913614    -0.13700
C502        C  0.00863108  0.24127609  0.89606889    -0.28900
H503        H  0.98971929  0.20074315  0.94152274     0.15300
H504        H  0.99909414  0.26348062  0.87327617     0.15900
C505        C  0.77552453  0.53679979  0.35266828    -0.13700
C506        C  0.74027260  0.51921563  0.36014733    -0.28900
H507        H  0.80319006  0.51996353  0.35802532     0.15300
H508        H  0.71249510  0.53635104  0.35828454     0.15900
C509        C  0.83629615  0.82306318  0.25552445    -0.13700
C510        C  0.84777694  0.84657120  0.28645857    -0.28900
H511        H  0.84859786  0.82848186  0.22551555     0.15300
H512        H  0.83915842  0.83884675  0.31734678     0.15900
C513        C  0.12588440  0.31360476  0.21691451    -0.13700
C514        C  0.09698740  0.33278496  0.19475932    -0.28900
H515        H  0.13499193  0.32433109  0.24673390     0.15300
H516        H  0.08803346  0.32084168  0.16534398     0.15900
C517        C  0.95328257  0.36857905  0.21405700    -0.13700
C518        C  0.93923055  0.33611265  0.19464182    -0.28900
H519        H  0.93179406  0.39020808  0.22509466     0.15300
H520        H  0.95955654  0.31422958  0.18252988     0.15900
C521        C  0.10206865  0.66103551  0.25440446    -0.13700
C522        C  0.10200190  0.62606754  0.27525568    -0.28900
H523        H  0.07945817  0.66605931  0.23046517     0.15300
H524        H  0.12502376  0.61953634  0.29835423     0.15900
C525        C  0.95395410  0.60809488  0.28438797    -0.13700
C526        C  0.93895580  0.64054335  0.26458398    -0.28900
H527        H  0.93492346  0.59135644  0.30503031     0.15300
H528        H  0.95604934  0.65564863  0.24113536     0.15900
C529        C  0.03869813  0.48839247  0.27493874    -0.13700
C530        C  0.06032561  0.46788813  0.24816815    -0.28900
H531        H  0.01571141  0.47263888  0.29178048     0.15300
H532        H  0.08369578  0.48277640  0.23113682     0.15900
C533        C  0.26998502  0.93515285  0.63847614    -0.13700
C534        C  0.23385644  0.95012767  0.62705874    -0.28900
H535        H  0.29647561  0.95362423  0.63503164     0.15300
H536        H  0.20784445  0.93068658  0.62624545     0.15900
C537        C  0.33824617  0.64183144  0.72009535    -0.13700
C538        C  0.36607658  0.63454101  0.74955441    -0.28900
H539        H  0.33197721  0.61914069  0.69753766     0.15300
H540        H  0.37436208  0.65837312  0.77016889     0.15900
C541        C  0.26203054  0.82914246  0.83138119    -0.13700
C542        C  0.22913750  0.85068413  0.83956786    -0.28900
H543        H  0.28741959  0.82939625  0.85270622     0.15300
H544        H  0.20458326  0.85148363  0.81724306     0.15900
C545        C  0.61162741  0.24051034  0.96453256    -0.13700
C546        C  0.59760942  0.26081219  0.93147400    -0.28900
H547        H  0.64096706  0.22625238  0.96367476     0.15300
H548        H  0.56999719  0.27802804  0.93350739     0.15900
C549        C  0.53058553  0.32025795  0.73737748    -0.13700
C550        C  0.51387406  0.35574315  0.74588919    -0.28900
H551        H  0.51397737  0.29859377  0.71952665     0.15300
H552        H  0.53193968  0.37814887  0.76123183     0.15900
C553        C  0.71025858  0.32221048  0.64804923    -0.13700
C554        C  0.73148728  0.35598453  0.64257829    -0.28900
H555        H  0.69132418  0.31169468  0.62313769     0.15300
H556        H  0.74787217  0.36788680  0.66862326     0.15900
C557        C  0.84363774  0.25656456  0.85553027    -0.13700
C558        C  0.80881422  0.23628925  0.85638589    -0.28900
H559        H  0.84854492  0.27982929  0.83272396     0.15300
H560        H  0.80575826  0.21280316  0.87946652     0.15900
C561        C  0.78132939  0.47554487  0.11185040    -0.13700
C562        C  0.76272858  0.44204515  0.10009234    -0.28900
H563        H  0.79982276  0.47480934  0.13953292     0.15300
H564        H  0.74283804  0.44292540  0.07344057     0.15900
C565        C  0.77659252  0.62278412  0.12106205    -0.13700
C566        C  0.75422105  0.62301501  0.15481456    -0.28900
H567        H  0.80009160  0.64468810  0.11658508     0.15300
H568        H  0.73057399  0.60086447  0.15746248     0.15900
C569        C  0.75242388  0.58872960  0.81384564    -0.13700
C570        C  0.72377549  0.61719376  0.81257797    -0.28900
H571        H  0.76862150  0.58336185  0.78599675     0.15300
H572        H  0.70404034  0.61975599  0.83834258     0.15900
C573        C  0.70707924  0.41960644  0.84882462    -0.13700
C574        C  0.73717041  0.44335643  0.83671280    -0.28900
H575        H  0.68741705  0.42989112  0.87253959     0.15300
H576        H  0.75473490  0.43501597  0.81062851     0.15900
C577        C  0.74708447  0.53000291  0.95920695    -0.13700
C578        C  0.76385516  0.55919672  0.98189103    -0.28900
H579        H  0.73417352  0.50452852  0.97500115     0.15300
H580        H  0.77578335  0.58564757  0.96695730     0.15900
C581        C  0.33289527  0.76643994  0.36710602    -0.13700
C582        C  0.30038333  0.74318513  0.36269208    -0.28900
H583        H  0.33570664  0.79386286  0.34921763     0.15300
H584        H  0.29858756  0.71600523  0.38124163     0.15900
C585        C  0.33027093  0.76044169  0.53401463    -0.13700
C586        C  0.36416309  0.77300098  0.51674472    -0.28900
H587        H  0.30961911  0.74168053  0.51695962     0.15300
H588        H  0.38645473  0.78854115  0.53511437     0.15900
C589        C  0.61354174  0.69249490  0.49475706    -0.13700
C590        C  0.59781469  0.70012379  0.53119476    -0.28900
H591        H  0.64162241  0.67590090  0.49366777     0.15300
H592        H  0.57128814  0.71895282  0.53292565     0.15900
C593        C  0.63789741  0.74146236  0.35522421    -0.13700
C594        C  0.64609130  0.71348538  0.32779145    -0.28900
H595        H  0.66054969  0.76348853  0.36293637     0.15300
H596        H  0.62448830  0.68978083  0.32242525     0.15900
C597        C  0.49663508  0.74068844  0.40471347    -0.13700
C598        C  0.46777140  0.72264075  0.42612923    -0.28900
H599        H  0.48852526  0.76500513  0.38367682     0.15300
H600        H  0.47543735  0.69818102  0.44704551     0.15900
C601        C  0.09366484  0.76680347  0.47319931    -0.13700
C602        C  0.12167848  0.74827181  0.45133982    -0.28900
H603        H  0.07548955  0.79055239  0.45913341     0.15300
H604        H  0.13756474  0.72244332  0.46433691     0.15900
C605        C  0.14321965  0.72879556  0.61217348    -0.13700
C606        C  0.14973506  0.75279188  0.64405933    -0.28900
H607        H  0.16809235  0.71151235  0.60056689     0.15300
H608        H  0.12593741  0.77272964  0.65351721     0.15900
C609        C  0.82689365  0.71239690  0.60962093    -0.13700
C610        C  0.80047516  0.68241596  0.60474698    -0.28900
H611        H  0.82475145  0.73223582  0.63534857     0.15300
H612        H  0.80452061  0.66210065  0.57963763     0.15900
C613        C  0.86578472  0.71134337  0.46262525    -0.13700
C614        C  0.83043002  0.72079982  0.44441497    -0.28900
H615        H  0.88919687  0.69747247  0.44502658     0.15300
H616        H  0.80824107  0.73780776  0.46076153     0.15900
C617        C  0.96433574  0.75826193  0.56487777    -0.13700
C618        C  0.99434985  0.73574129  0.58108277    -0.28900
H619        H  0.97172718  0.78502908  0.54741573     0.15300
H620        H  0.98744509  0.70870499  0.59833380     0.15900
C621        C  0.42894925  0.08828102  0.77747743    -0.13700
C622        C  0.46532063  0.10460608  0.78393359    -0.28900
H623        H  0.42646538  0.05929295  0.76328577     0.15300
H624        H  0.46711903  0.13484460  0.79546792     0.15900
C625        C  0.60603985  0.11880974  0.74245355    -0.13700
C626        C  0.63119867  0.13031809  0.77251931    -0.28900
H627        H  0.60135847  0.13852021  0.71610847     0.15300
H628        H  0.63358814  0.11178142  0.80002406     0.15900
C629        C  0.63958248  0.80203845  0.71935690    -0.13700
C630        C  0.60445279  0.80629897  0.73846457    -0.28900
H631        H  0.65488422  0.82773273  0.70646151     0.15300
H632        H  0.59049658  0.77906903  0.74991173     0.15900
C633        C  0.46561103  0.85370086  0.70681193    -0.13700
C634        C  0.44579983  0.82188802  0.72184641    -0.28900
H635        H  0.44972139  0.87489284  0.68676034     0.15300
H636        H  0.46038272  0.80252726  0.74464597     0.15900
C637        C  0.57000033  0.95561774  0.74009347    -0.13700
C638        C  0.54326114  0.97974086  0.75822255    -0.28900
H639        H  0.59814041  0.96725846  0.72904512     0.15300
H640        H  0.51680230  0.96554192  0.77064587     0.15900
loop_ 
_geom_bond_atom_site_label_1 
_geom_bond_atom_site_label_2 
_geom_bond_distance 
_geom_bond_site_symmetry_2 
_ccdc_geom_bond_type 
C1            C2   1.413       .  A
C1            C6   1.416       .  A
C1          C637   1.499       .  S
C2            C3   1.398       .  A
C2            H7   1.084       .  S
C3            C4   1.399       .  A
C3          C633   1.489       .  S
C4            C5   1.406       .  A
C4            H8   1.084       .  S
C5            C6   1.414       .  A
C5          C630   1.487       .  S
C6            H9   1.083       .  S
C10          C11   1.410       .  A
C10          C15   1.416       .  A
C10         C638   1.496   1_545  S
C11          C12   1.403       .  A
C11          H16   1.083       .  S
C12          C13   1.396       .  A
C12         C622   1.490       .  S
C13          C14   1.402       .  A
C13          H17   1.085       .  S
C14          C15   1.414       .  A
C14         C625   1.481       .  S
C15          H18   1.082       .  S
C19          C20   1.401       .  A
C19          C24   1.410       .  A
C19         C617   1.476       .  S
C20          C21   1.395       .  A
C20          H25   1.085       .  S
C21          C22   1.400       .  A
C21         C613   1.482       .  S
C22          C23   1.413       .  A
C22          H26   1.083       .  S
C23          C24   1.412       .  A
C23         C609   1.495       .  S
C24          H27   1.083       .  S
C28          C29   1.412       .  A
C28          C33   1.408       .  A
C28         C618   1.489   1_455  S
C29          C30   1.399       .  A
C29          H34   1.083       .  S
C30          C31   1.400       .  A
C30         C601   1.482       .  S
C31          C32   1.401       .  A
C31          H35   1.084       .  S
C32          C33   1.408       .  A
C32         C605   1.476       .  S
C33          H36   1.084       .  S
C37          C38   1.406       .  A
C37          C42   1.416       .  A
C37         C597   1.491       .  S
C38          C39   1.401       .  A
C38          H43   1.084       .  S
C39          C40   1.399       .  A
C39         C593   1.469       .  S
C40          C41   1.396       .  A
C40          H44   1.085       .  S
C41          C42   1.407       .  A
C41         C589   1.488       .  S
C42          H45   1.080       .  S
C46          C47   1.399       .  A
C46          C51   1.408       .  A
C46         C598   1.475       .  S
C47          C48   1.395       .  A
C47          H52   1.085       .  S
C48          C49   1.403       .  A
C48         C586   1.478       .  S
C49          C50   1.409       .  A
C49          H53   1.084       .  S
C50          C51   1.409       .  A
C50         C581   1.481       .  S
C51          H54   1.083       .  S
C55          C56   1.417       .  A
C55          C60   1.410       .  A
C55         C577   1.498       .  S
C56          C57   1.415       .  A
C56          H61   1.082       .  S
C57          C58   1.404       .  A
C57         C569   1.488       .  S
C58          C59   1.397       .  A
C58          H62   1.085       .  S
C59          C60   1.404       .  A
C59         C574   1.488       .  S
C60          H63   1.084       .  S
C64          C65   1.416       .  A
C64          C69   1.416       .  A
C64         C578   1.504   1_554  S
C65          C66   1.411       .  A
C65          H70   1.083       .  S
C66          C67   1.403       .  A
C66         C565   1.489       .  S
C67          C68   1.393       .  A
C67          H71   1.085       .  S
C68          C69   1.407       .  A
C68         C561   1.486       .  S
C69          H72   1.081       .  S
Zn73         O77   1.949       .  S
Zn73         O78   2.005       .  S
Zn73         O82   2.012       .  S
Zn73         O89   2.004       .  S
Zn74         O77   1.968       .  S
Zn74         O79   2.045       .  S
Zn74         O81   2.032       .  S
Zn74         O85   2.052       .  S
Zn75         O77   1.981       .  S
Zn75         O80   2.054       .  S
Zn75         O83   2.059       .  S
Zn75         O86   2.066       .  S
Zn76         O77   1.952       .  S
Zn76         O84   2.007       .  S
Zn76         O87   2.021       .  S
Zn76         O88   2.048       .  S
O78          C90   1.273       .  A
O79          C91   1.278       .  A
O80          C92   1.277       .  A
O81          C90   1.273       .  A
O82          C92   1.272       .  A
O83          C91   1.282       .  A
O84          C93   1.275       .  A
O85          C94   1.279       .  A
O86          C93   1.280       .  A
O87          C94   1.273       .  A
O88          C95   1.276       .  A
O89          C95   1.270       .  A
C90         C549   1.477       .  S
C91         C553   1.494       .  S
C92         C573   1.482       .  S
C93         C558   1.479       .  S
C94         C626   1.486       .  S
C95         C546   1.479       .  S
Zn96        O100   1.964       .  S
Zn96        O101   2.017       .  S
Zn96        O105   2.013       .  S
Zn96        O112   2.028       .  S
Zn97        O100   1.969       .  S
Zn97        O102   2.013       .  S
Zn97        O104   2.031       .  S
Zn97        O108   2.034       .  S
Zn98        O100   1.969       .  S
Zn98        O103   2.027       .  S
Zn98        O106   2.043       .  S
Zn98        O109   2.033       .  S
Zn99        O100   1.962       .  S
Zn99        O107   2.028       .  S
Zn99        O110   2.027       .  S
Zn99        O111   2.018       .  S
O101        C113   1.272       .  A
O102        C114   1.273       .  A
O103        C115   1.273       .  A
O104        C113   1.276       .  A
O105        C115   1.274       .  A
O106        C114   1.276       .  A
O107        C116   1.274       .  A
O108        C117   1.275       .  A
O109        C116   1.278       .  A
O110        C117   1.273       .  A
O111        C118   1.275       .  A
O112        C118   1.274       .  A
C113        C585   1.477       .  S
C114        C533   1.475       .  S
C115        C606   1.479       .  S
C116        C541   1.483       .  S
C117        C634   1.481       .  S
C118        C537   1.481       .  S
C119        C120   1.410       .  A
C119        C124   1.399   1_455  A
C119        C529   1.479       .  S
C120        C121   1.410       .  A
C120        H125   1.083       .  S
C121        C122   1.410       .  A
C121        C522   1.485       .  S
C122        C123   1.398   1_455  A
C122        H126   1.084       .  S
C123        C124   1.394       .  A
C123        C525   1.473       .  S
C124        H127   1.085       .  S
C128        C129   1.415       .  A
C128        C133   1.406       .  A
C128        C530   1.487       .  S
C129        C130   1.403   1_455  A
C129        H134   1.083   1_455  S
C130        C131   1.406   1_655  A
C130        C517   1.499       .  S
C131        C132   1.402       .  A
C131        H135   1.079       .  S
C132        C133   1.402       .  A
C132        C514   1.474       .  S
C133        H136   1.084       .  S
Zn137       O141   1.949       .  S
Zn137       O142   2.008       .  S
Zn137       O146   2.006       .  S
Zn137       O153   2.030       .  S
Zn138       O141   1.980       .  S
Zn138       O143   2.030       .  S
Zn138       O145   2.058       .  S
Zn138       O149   2.036       .  S
Zn139       O141   1.953       .  S
Zn139       O144   2.016       .  S
Zn139       O147   2.013       .  S
Zn139       O150   2.025       .  S
Zn140       O141   1.951       .  S
Zn140       O148   2.016       .  S
Zn140       O151   1.978       .  S
Zn140       O152   2.004       .  S
O142        C154   1.273       .  A
O143        C155   1.276       .  A
O144        C156   1.275       .  A
O145        C154   1.278       .  A
O146        C156   1.271       .  A
O147        C155   1.275       .  A
O148        C157   1.273       .  A
O149        C158   1.273       .  A
O150        C157   1.272       .  A
O151        C158   1.270       .  A
O152        C159   1.270       .  A
O153        C159   1.274       .  A
C154        C566   1.480       .  S
C155        C509   1.475       .  S
C156        C594   1.474       .  S
C157        C614   1.476       .  S
C158        C526   1.473       .  S
C159        C505   1.472       .  S
C160        C161   1.412       .  A
C160        C165   1.405       .  A
C160        C501   1.486       .  S
C161        C162   1.411       .  A
C161        H166   1.083       .  S
C162        C163   1.407       .  A
C162        C557   1.489       .  S
C163        C164   1.403       .  A
C163        H167   1.079       .  S
C164        C165   1.401       .  A
C164        C497   1.493   1_556  S
C165        H168   1.085       .  S
C169        C170   1.417       .  A
C169        C174   1.412       .  A
C169        C502   1.502       .  S
C170        C171   1.409       .  A
C170        H175   1.078       .  S
C171        C172   1.396       .  A
C171        C489   1.494       .  S
C172        C173   1.403       .  A
C172        H176   1.085       .  S
C173        C174   1.408       .  A
C173        C494   1.481       .  S
C174        H177   1.084       .  S
Zn178       O182   1.950       .  S
Zn178       O183   1.993       .  S
Zn178       O187   2.021       .  S
Zn178       O194   1.998       .  S
Zn179       O182   1.988       .  S
Zn179       O184   2.045       .  S
Zn179       O186   2.046       .  S
Zn179       O190   2.050       .  S
Zn180       O182   1.941       .  S
Zn180       O185   2.006       .  S
Zn180       O188   1.987       .  S
Zn180       O191   2.000       .  S
Zn181       O182   1.962       .  S
Zn181       O189   2.039       .  S
Zn181       O192   2.024       .  S
Zn181       O193   2.050       .  S
O183        C195   1.273       .  A
O184        C196   1.275       .  A
O185        C197   1.271       .  A
O186        C195   1.275       .  A
O187        C197   1.272       .  A
O188        C196   1.273       .  A
O189        C198   1.275       .  A
O190        C199   1.277       .  A
O191        C198   1.271       .  A
O192        C199   1.278       .  A
O193        C200   1.278       .  A
O194        C200   1.270       .  A
C195        C477   1.474       .  S
C196        C482   1.477       .  S
C197        C498   1.477       .  S
C198        C518   1.477       .  S
C199        C486   1.487       .  S
C200        C562   1.479       .  S
C201        C202   1.415       .  A
C201        C206   1.409       .  A
C201        C474   1.494       .  S
C202        C203   1.412       .  A
C202        H207   1.083       .  S
C203        C204   1.399       .  A
C203        C465   1.479       .  S
C204        C205   1.399       .  A
C204        H208   1.082       .  S
C205        C206   1.393       .  A
C205        C470   1.481   1_554  S
C206        H209   1.082   1_554  S
C210        C211   1.405       .  A
C210        C215   1.408       .  A
C210        C473   1.478       .  S
C211        C212   1.404       .  A
C211        H216   1.083       .  S
C212        C213   1.404       .  A
C212        C478   1.469       .  S
C213        C214   1.398       .  A
C213        H217   1.085       .  S
C214        C215   1.405       .  A
C214        C545   1.487   1_554  S
C215        H218   1.084   1_554  S
C219        C220   1.405       .  A
C219        C224   1.415       .  A
C219        C461   1.488       .  S
C220        C221   1.401       .  A
C220        H225   1.083       .  S
C221        C222   1.392       .  A
C221        C457   1.480       .  S
C222        C223   1.400       .  A
C222        H226   1.085       .  S
C223        C224   1.414       .  A
C223        C542   1.476       .  S
C224        H227   1.083       .  S
C228        C229   1.412       .  A
C228        C233   1.411       .  A
C228        C462   1.495       .  S
C229        C230   1.399       .  A
C229        H234   1.084       .  S
C230        C231   1.403       .  A
C230        C453   1.490   1_565  S
C231        C232   1.403       .  A
C231        H235   1.083       .  S
C232        C233   1.413       .  A
C232        C449   1.486       .  S
C233        H236   1.083       .  S
Zn237       O241   1.941       .  S
Zn237       O242   1.966       .  S
Zn237       O246   1.991       .  S
Zn237       O253   1.994       .  S
Zn238       O241   2.001       .  S
Zn238       O243   2.095       .  S
Zn238       O245   2.076       .  S
Zn238       O249   2.074       .  S
Zn239       O241   1.942       .  S
Zn239       O244   2.008       .  S
Zn239       O247   1.968       .  S
Zn239       O250   2.029       .  S
Zn240       O241   1.941       .  S
Zn240       O248   2.012       .  S
Zn240       O251   1.980       .  S
Zn240       O252   2.015       .  S
O242        C254   1.268       .  A
O243        C255   1.283       .  A
O244        C256   1.273       .  A
O245        C254   1.279       .  A
O246        C256   1.268       .  A
O247        C255   1.269       .  A
O248        C257   1.270       .  A
O249        C258   1.280       .  A
O250        C257   1.273       .  A
O251        C258   1.273       .  A
O252        C259   1.273       .  A
O253        C259   1.268       .  A
C254        C493   1.473       .  S
C255        C441   1.477       .  S
C256        C469   1.468       .  S
C257        C621   1.479       .  S
C258        C445   1.483       .  S
C259        C458   1.470       .  S
C260        C261   1.414       .  A
C260        C265   1.412       .  A
C260        C437   1.492       .  S
C261        C262   1.411       .  A
C261        H266   1.083       .  S
C262        C263   1.403       .  A
C262        C433   1.481       .  S
C263        C264   1.398   1_545  A
C263        H267   1.085       .  S
C264        C265   1.397   1_565  A
C264        C430   1.483       .  S
C265        H268   1.084   1_545  S
C269        C270   1.409   1_545  A
C269        C274   1.413       .  A
C269        C438   1.485       .  S
C270        C271   1.398       .  A
C270        H275   1.085       .  S
C271        C272   1.398   1_565  A
C271        C534   1.485       .  S
C272        C273   1.403       .  A
C272        H276   1.085       .  S
C273        C274   1.410       .  A
C273        C446   1.479       .  S
C274        H277   1.083       .  S
Zn278       O282   1.936       .  S
Zn278       O283   1.967       .  S
Zn278       O287   1.997       .  S
Zn278       O294   1.983       .  S
Zn279       O282   2.005       .  S
Zn279       O284   2.078       .  S
Zn279       O286   2.074       .  S
Zn279       O290   2.062       .  S
Zn280       O282   1.950       .  S
Zn280       O285   2.020       .  S
Zn280       O288   1.987       .  S
Zn280       O291   2.008       .  S
Zn281       O282   1.973       .  S
Zn281       O289   2.045       .  S
Zn281       O292   2.017       .  S
Zn281       O293   2.074       .  S
O283        C295   1.270       .  A
O284        C296   1.279       .  A
O285        C297   1.272       .  A
O286        C295   1.278       .  A
O287        C297   1.268       .  A
O288        C296   1.272       .  A
O289        C298   1.276       .  A
O290        C299   1.279       .  A
O291        C298   1.272       .  A
O292        C299   1.278       .  A
O293        C300   1.279       .  A
O294        C300   1.267       .  A
C295        C513   1.485       .  S
C296        C434   1.491       .  S
C297        C426   1.473       .  S
C298        C454   1.479       .  S
C299        C466   1.486       .  S
C300        C490   1.480       .  S
C301        C302   1.402       .  A
C301        C306   1.407       .  A
C301        C421   1.475       .  S
C302        C303   1.398       .  A
C302        H307   1.085       .  S
C303        C304   1.397       .  A
C303        C418   1.475       .  S
C304        C305   1.403       .  A
C304        H308   1.085       .  S
C305        C306   1.406       .  A
C305        C510   1.472       .  S
C306        H309   1.083       .  S
C310        C311   1.405       .  A
C310        C315   1.411       .  A
C310        C422   1.485   1_545  S
C311        C312   1.402       .  A
C311        H316   1.084       .  S
C312        C313   1.400       .  A
C312        C481   1.468       .  S
C313        C314   1.404       .  A
C313        H317   1.080       .  S
C314        C315   1.400       .  A
C314        C425   1.492       .  S
C315        H318   1.083       .  S
Zn319       O323   1.966       .  S
Zn319       O324   2.051       .  S
Zn319       O328   2.031       .  S
Zn319       O335   2.053       .  S
Zn320       O323   1.963       .  S
Zn320       O325   2.021       .  S
Zn320       O327   2.015       .  S
Zn320       O331   2.046       .  S
Zn321       O323   1.970       .  S
Zn321       O326   2.021       .  S
Zn321       O329   2.015       .  S
Zn321       O332   2.013       .  S
Zn322       O323   1.950       .  S
Zn322       O330   2.015       .  S
Zn322       O333   2.004       .  S
Zn322       O334   2.012       .  S
O324        C336   1.279       .  A
O325        C337   1.272       .  A
O326        C338   1.274       .  A
O327        C336   1.275       .  A
O328        C338   1.274       .  A
O329        C337   1.273       .  A
O330        C339   1.272       .  A
O331        C340   1.277       .  A
O332        C339   1.273       .  A
O333        C340   1.272       .  A
O334        C341   1.272       .  A
O335        C341   1.279       .  A
C336        C582   1.481       .  S
C337        C602   1.475       .  S
C338        C429   1.477       .  S
C339        C417   1.471       .  S
C340        C521   1.477       .  S
C341        C450   1.483       .  S
C342        C343   1.409       .  A
C342        C347   1.400       .  A
C342        C413   1.475       .  S
C343        C344   1.410       .  A
C343        H348   1.083       .  S
C344        C345   1.415       .  A
C344        C442   1.494       .  S
C345        C346   1.402       .  A
C345        H349   1.082       .  S
C346        C347   1.394       .  A
C346        C550   1.482       .  S
C347        H350   1.085       .  S
C351        C352   1.407       .  A
C351        C356   1.410       .  A
C351        C414   1.486       .  S
C352        C353   1.408       .  A
C352        H357   1.083       .  S
C353        C354   1.401       .  A
C353        C538   1.477       .  S
C354        C355   1.403       .  A
C354        H358   1.083       .  S
C355        C356   1.398       .  A
C355        C410   1.487       .  S
C356        H359   1.084       .  S
C360        C361   1.416       .  A
C360        C365   1.408       .  A
C360        C405   1.488       .  S
C361        C362   1.415       .  A
C361        H366   1.083       .  S
C362        C363   1.400       .  A
C362        C485   1.481       .  S
C363        C364   1.395       .  A
C363        H367   1.085       .  S
C364        C365   1.397       .  A
C364        C506   1.478       .  S
C365        H368   1.085       .  S
C369        C370   1.411       .  A
C369        C374   1.416       .  A
C369        C406   1.500       .  S
C370        C371   1.400       .  A
C370        H375   1.083       .  S
C371        C372   1.404       .  A
C371        C401   1.493       .  S
C372        C373   1.404       .  A
C372        H376   1.082       .  S
C373        C374   1.416       .  A
C373        C554   1.491       .  S
C374        H377   1.083       .  S
Zn378       O382   1.959       .  S
Zn378       O383   1.989       .  S
Zn378       O387   2.042       .  S
Zn378       O394   2.030       .  S
Zn379       O382   2.008       .  S
Zn379       O384   2.089       .  S
Zn379       O386   2.080       .  S
Zn379       O390   2.082       .  S
Zn380       O382   1.942       .  S
Zn380       O385   2.006       .  S
Zn380       O388   1.979       .  S
Zn380       O391   1.996       .  S
Zn381       O382   1.962       .  S
Zn381       O389   2.033       .  S
Zn381       O392   2.000       .  S
Zn381       O393   2.022       .  S
O383        C395   1.271       .  A
O384        C396   1.280       .  A
O385        C397   1.270       .  A
O386        C395   1.280       .  A
O387        C397   1.276       .  A
O388        C396   1.271       .  A
O389        C398   1.274       .  A
O390        C399   1.281       .  A
O391        C398   1.269       .  A
O392        C399   1.272       .  A
O393        C400   1.273       .  A
O394        C400   1.275       .  A
C395        C610   1.478       .  S
C396        C629   1.485       .  S
C397        C590   1.479       .  S
C398        C409   1.474       .  S
C399        C570   1.479       .  S
C400        C402   1.481       .  S
C401        C402   1.348       .  D
C401        H403   1.087       .  S
C402        H404   1.084       .  S
C405        C406   1.352       .  D
C405        H407   1.087       .  S
C406        H408   1.086       .  S
C409        C410   1.345       .  D
C409        H411   1.085       .  S
C410        H412   1.087       .  S
C413        C414   1.344       .  D
C413        H415   1.088       .  S
C414        H416   1.086       .  S
C417        C418   1.343   1_455  D
C417        H419   1.087       .  S
C418        H420   1.087       .  S
C421        C422   1.345       .  D
C421        H423   1.087       .  S
C422        H424   1.086       .  S
C425        C426   1.346   1_655  D
C425        H427   1.087   1_655  S
C426        H428   1.082   1_455  S
C429        C430   1.345       .  D
C429        H431   1.087       .  S
C430        H432   1.087       .  S
C433        C434   1.350       .  D
C433        H435   1.087       .  S
C434        H436   1.086       .  S
C437        C438   1.350       .  D
C437        H439   1.086       .  S
C438        H440   1.088       .  S
C441        C442   1.344       .  D
C441        H443   1.088       .  S
C442        H444   1.086       .  S
C445        C446   1.346       .  D
C445        H447   1.086       .  S
C446        H448   1.089       .  S
C449        C450   1.343       .  D
C449        H451   1.087       .  S
C450        H452   1.087       .  S
C453        C454   1.346       .  D
C453        H455   1.087       .  S
C454        H456   1.086   1_545  S
C457        C458   1.342   1_565  D
C457        H459   1.087       .  S
C458        H460   1.086       .  S
C461        C462   1.348   1_556  D
C461        H463   1.088       .  S
C462        H464   1.085   1_554  S
C465        C466   1.345       .  D
C465        H467   1.088       .  S
C466        H468   1.086       .  S
C469        C470   1.341       .  D
C469        H471   1.084       .  S
C470        H472   1.087       .  S
C473        C474   1.351       .  D
C473        H475   1.085       .  S
C474        H476   1.086       .  S
C477        C478   1.341       .  D
C477        H479   1.086       .  S
C478        H480   1.087       .  S
C481        C482   1.343       .  D
C481        H483   1.087       .  S
C482        H484   1.086       .  S
C485        C486   1.345       .  D
C485        H487   1.088       .  S
C486        H488   1.086       .  S
C489        C490   1.343   1_556  D
C489        H491   1.087       .  S
C490        H492   1.086       .  S
C493        C494   1.343       .  D
C493        H495   1.086       .  S
C494        H496   1.089       .  S
C497        C498   1.350       .  D
C497        H499   1.087       .  S
C498        H500   1.082   1_554  S
C501        C502   1.349   1_655  D
C501        H503   1.084       .  S
C502        H504   1.086   1_455  S
C505        C506   1.342       .  D
C505        H507   1.087       .  S
C506        H508   1.086       .  S
C509        C510   1.345       .  D
C509        H511   1.087       .  S
C510        H512   1.087       .  S
C513        C514   1.348       .  D
C513        H515   1.086       .  S
C514        H516   1.088       .  S
C517        C518   1.349       .  D
C517        H519   1.087       .  S
C518        H520   1.081       .  S
C521        C522   1.345       .  D
C521        H523   1.088       .  S
C522        H524   1.086       .  S
C525        C526   1.344       .  D
C525        H527   1.088       .  S
C526        H528   1.086       .  S
C529        C530   1.343       .  D
C529        H531   1.087       .  S
C530        H532   1.086       .  S
C533        C534   1.345       .  D
C533        H535   1.087       .  S
C534        H536   1.087       .  S
C537        C538   1.344       .  D
C537        H539   1.087       .  S
C538        H540   1.087       .  S
C541        C542   1.343       .  D
C541        H543   1.087       .  S
C542        H544   1.087       .  S
C545        C546   1.344       .  D
C545        H547   1.087       .  S
C546        H548   1.087       .  S
C549        C550   1.344       .  D
C549        H551   1.086       .  S
C550        H552   1.087       .  S
C553        C554   1.347       .  D
C553        H555   1.087       .  S
C554        H556   1.087       .  S
C557        C558   1.348       .  D
C557        H559   1.086       .  S
C558        H560   1.088       .  S
C561        C562   1.342       .  D
C561        H563   1.087       .  S
C562        H564   1.087       .  S
C565        C566   1.348       .  D
C565        H567   1.086       .  S
C566        H568   1.088       .  S
C569        C570   1.344       .  D
C569        H571   1.088       .  S
C570        H572   1.086       .  S
C573        C574   1.345       .  D
C573        H575   1.087       .  S
C574        H576   1.087       .  S
C577        C578   1.354       .  D
C577        H579   1.085       .  S
C578        H580   1.085       .  S
C581        C582   1.344       .  D
C581        H583   1.086       .  S
C582        H584   1.088       .  S
C585        C586   1.341       .  D
C585        H587   1.087       .  S
C586        H588   1.087       .  S
C589        C590   1.344       .  D
C589        H591   1.087       .  S
C590        H592   1.086       .  S
C593        C594   1.340       .  D
C593        H595   1.087       .  S
C594        H596   1.088       .  S
C597        C598   1.343       .  D
C597        H599   1.087       .  S
C598        H600   1.085       .  S
C601        C602   1.344       .  D
C601        H603   1.087       .  S
C602        H604   1.087       .  S
C605        C606   1.344       .  D
C605        H607   1.087       .  S
C606        H608   1.087       .  S
C609        C610   1.347       .  D
C609        H611   1.086       .  S
C610        H612   1.087       .  S
C613        C614   1.344       .  D
C613        H615   1.087       .  S
C614        H616   1.087       .  S
C617        C618   1.344       .  D
C617        H619   1.087       .  S
C618        H620   1.087       .  S
C621        C622   1.346       .  D
C621        H623   1.085       .  S
C622        H624   1.087       .  S
C625        C626   1.344       .  D
C625        H627   1.086       .  S
C626        H628   1.088       .  S
C629        C630   1.348       .  D
C629        H631   1.086       .  S
C630        H632   1.089       .  S
C633        C634   1.347       .  D
C633        H635   1.087       .  S
C634        H636   1.086       .  S
C637        C638   1.353       .  D
C637        H639   1.084       .  S
C638        H640   1.087       .  S
